@<TRIPOS>MOLECULE
COMMON-LISP:NIL
119 129 1 0 0
POLYMER
CHARGES


@<TRIPOS>ATOM
1 C.b -0.872324 1.76648 2.25019 C.3 1 FUZI_1    0.000
2 C_28893 4.068 1.276 -4.981 C.3 1 FUZI_1    0.000
3 C_28894 3.179 2.294 -4.249 C.3 1 FUZI_1    0.000
4 C_28892 3.143 0.075 -5.205 C.3 1 FUZI_1    0.000
5 N 2.093 1.530 -3.622 N.am 1 FUZI_1    0.000
6 O 0.767 -1.525 -4.909 O.2 1 FUZI_1    0.000
7 C.e 2.216 0.119 -3.979 C.3 1 FUZI_1    0.000
8 O 1.076 3.225 -2.598 O.2 1 FUZI_1    0.000
9 C_28904 0.426 0.421 -1.124 C.3 1 FUZI_1    0.000
10 C_28901 -1.290 1.840 -2.020 C.3 1 FUZI_1    0.000
11 C.d -0.017 1.052 -2.467 C.3 1 FUZI_1    0.000
12 C_28918 -3.544 -1.919 -2.946 C.3 1 FUZI_1    0.000
13 C.c -0.994 2.262 -0.568 C.3 1 FUZI_1    0.000
14 O 0.601 -0.068 1.621 O.2 1 FUZI_1    0.000
15 O -3.218 3.038 -0.224 O.2 1 FUZI_1    0.000
16 N -0.170 1.192 -0.030 N.am 1 FUZI_1    0.000
17 C_28912 0.021 2.961 2.634 C.3 1 FUZI_1    0.000
18 C_28909 -0.960 1.062 3.638 C.3 1 FUZI_1    0.000
19 O -3.379 3.482 4.581 O.co2 1 FUZI_1    0.000
20 O 0.810 -0.948 4.738 O.2 1 FUZI_1    0.000
21 C_28900 0.875 -0.565 -4.169 C.2 1 FUZI_1    0.000
22 C_28897 1.086 2.042 -2.881 C.2 1 FUZI_1    0.000
23 N.d -0.189 -0.035 -3.497 N.am 1 FUZI_1    0.000
24 C.d2 -1.560 -0.562 -3.730 C.3 1 FUZI_1    0.000
25 C_28917 -1.213 -2.831 -2.587 C.3 1 FUZI_1    0.000
26 C_28916 -2.076 -1.551 -2.651 C.3 1 FUZI_1    0.000
27 C_28908 -0.069 0.886 1.278 C.2 1 FUZI_1    0.000
28 C_28905 -2.219 2.558 0.279 C.2 1 FUZI_1    0.000
29 N.b -2.147 2.251 1.609 N.am 1 FUZI_1    0.000
30 C.b2 -3.340 2.419 2.479 C.3 1 FUZI_1    0.000
31 OH -3.091 4.724 2.872 O.co2 1 FUZI_1    0.000
32 C_28922 -3.267 3.635 3.381 C.2 1 FUZI_1    0.000
33 C_28929 -1.423 -0.859 8.575 C.2 1 FUZI_1    0.000
34 C.a2 0.111 1.929 5.809 C.3 1 FUZI_1    0.000
35 C_28931 0.374 0.186 7.557 C.2 1 FUZI_1    0.000
36 C_28927 -1.770 0.763 6.953 C.2 1 FUZI_1    0.000
37 C_28926 -0.450 0.917 6.798 C.2 1 FUZI_1    0.000
38 C_28935 -1.916 -1.742 9.450 C.2 1 FUZI_1    0.000
39 C_28930 -0.105 -0.697 8.433 C.2 1 FUZI_1    0.000
40 C_28928 -2.264 -0.119 7.828 C.2 1 FUZI_1    0.000
41 C_28932 -3.585 -0.274 7.971 C.2 1 FUZI_1    0.000
42 C_28933 -4.068 -1.158 8.846 C.2 1 FUZI_1    0.000
43 C_28934 -3.234 -1.891 9.584 C.2 1 FUZI_1    0.000
44 C.a 0.385 1.368 4.376 C.3 1 FUZI_1    0.000
45 N 1.005 2.433 3.583 N.am 1 FUZI_1    0.000
46 O 2.705 3.731 3.004 O.2 1 FUZI_1    0.000
47 C_28938 3.308 1.607 4.005 C.3 1 FUZI_1    0.000
48 C_28936 1.286 0.139 4.459 C.2 1 FUZI_1    0.000
49 C_28939 2.329 2.689 3.509 C.2 1 FUZI_1    0.000
50 N.z 2.619 0.276 4.189 N.am 1 FUZI_1    0.000
51 C.z2 3.476 -0.939 4.262 C.3 1 FUZI_1    0.000
52 C_28975 3.860 2.089 5.385 C.3 1 FUZI_1    0.000
53 C_28944 4.477 1.587 2.947 C.3 1 FUZI_1    0.000
54 C_28945 5.589 2.615 3.262 C.3 1 FUZI_1    0.000
55 NH 6.230 2.324 4.574 N.2 1 FUZI_1    0.000
56 C_28979 2.931 -2.443 0.885 C.2 1 FUZI_1    0.000
57 C_28980 3.247 -1.582 1.858 C.2 1 FUZI_1    0.000
58 C_28976 2.784 -3.177 3.448 C.2 1 FUZI_1    0.000
59 C_28977 2.471 -4.048 2.488 C.2 1 FUZI_1    0.000
60 C_28943 3.170 -1.933 3.148 C.2 1 FUZI_1    0.000
61 C_28984 2.995 -2.077 -0.400 C.2 1 FUZI_1    0.000
62 C_28978 2.536 -3.689 1.203 C.2 1 FUZI_1    0.000
63 C_28981 2.210 -4.548 0.232 C.2 1 FUZI_1    0.000
64 C_28982 2.274 -4.174 -1.047 C.2 1 FUZI_1    0.000
65 C_28983 2.666 -2.940 -1.362 C.2 1 FUZI_1    0.000
66 C_28974 5.345 1.729 5.616 C.3 1 FUZI_1    0.000
67 H_289741 5.654 2.113 6.591 H 1 FUZI_1    0.000
68 H_289742 5.476 0.645 5.623 H 1 FUZI_1    0.000
69 H_28983 2.718 -2.638 -2.405 H 1 FUZI_1    0.000
70 H_28982 2.006 -4.875 -1.833 H 1 FUZI_1    0.000
71 H_28981 1.888 -5.559 0.475 H 1 FUZI_1    0.000
72 H_28984 3.313 -1.073 -0.672 H 1 FUZI_1    0.000
73 H_28977 2.153 -5.051 2.764 H 1 FUZI_1    0.000
74 H_28976 2.709 -3.487 4.488 H 1 FUZI_1    0.000
75 H_28980 3.549 -0.575 1.591 H 1 FUZI_1    0.000
76 H_289451 6.354 2.563 2.483 H 1 FUZI_1    0.000
77 H_289452 5.187 3.630 3.278 H 1 FUZI_1    0.000
78 H_289441 4.081 1.775 1.945 H 1 FUZI_1    0.000
79 H_289442 4.980 0.627 2.871 H 1 FUZI_1    0.000
80 H_289751 3.265 1.671 6.199 H 1 FUZI_1    0.000
81 H_289752 3.769 3.176 5.469 H 1 FUZI_1    0.000
82 H.z21 3.281 -1.413 5.228 H 1 FUZI_1    0.000
83 H.z22 4.538 -0.706 4.272 H 1 FUZI_1    0.000
84 H_28934 -3.630 -2.610 10.297 H 1 FUZI_1    0.000
85 H_28933 -5.142 -1.280 8.957 H 1 FUZI_1    0.000
86 H_28932 -4.277 0.317 7.375 H 1 FUZI_1    0.000
87 H_28930 0.590 -1.282 9.032 H 1 FUZI_1    0.000
88 H_28935 -1.247 -2.346 10.060 H 1 FUZI_1    0.000
89 H_28927 -2.454 1.365 6.359 H 1 FUZI_1    0.000
90 H_28931 1.450 0.303 7.459 H 1 FUZI_1    0.000
91 H.a21 -0.567 2.784 5.739 H 1 FUZI_1    0.000
92 H.a22 1.039 2.336 6.216 H 1 FUZI_1    0.000
93 H.b21 -3.501 1.527 3.088 H 1 FUZI_1    0.000
94 H.b22 -4.240 2.543 1.872 H 1 FUZI_1    0.000
95 H_28916 -2.049 -1.070 -1.672 H 1 FUZI_1    0.000
96 H_289171 -0.182 -2.595 -2.316 H 1 FUZI_1    0.000
97 H_289172 -1.207 -3.344 -3.552 H 1 FUZI_1    0.000
98 H_289173 -1.605 -3.519 -1.835 H 1 FUZI_1    0.000
99 H.d21 -1.585 -1.076 -4.694 H 1 FUZI_1    0.000
100 H.d22 -2.256 0.272 -3.838 H 1 FUZI_1    0.000
101 H_289091 -1.175 -0.004 3.536 H 1 FUZI_1    0.000
102 H_289092 -1.763 1.478 4.235 H 1 FUZI_1    0.000
103 H_289121 0.509 3.384 1.751 H 1 FUZI_1    0.000
104 H_289122 -0.558 3.740 3.135 H 1 FUZI_1    0.000
105 H.c -0.394 3.175 -0.559 H 1 FUZI_1    0.000
106 H_289181 -3.634 -2.413 -3.917 H 1 FUZI_1    0.000
107 H_289182 -4.169 -1.023 -2.957 H 1 FUZI_1    0.000
108 H_289183 -3.933 -2.593 -2.179 H 1 FUZI_1    0.000
109 H_289011 -2.179 1.212 -1.984 H 1 FUZI_1    0.000
110 H_289012 -1.508 2.695 -2.666 H 1 FUZI_1    0.000
111 H_289041 0.075 -0.610 -1.045 H 1 FUZI_1    0.000
112 H_289042 1.515 0.427 -1.028 H 1 FUZI_1    0.000
113 H.e 2.707 -0.383 -3.141 H 1 FUZI_1    0.000
114 H_288921 2.566 0.224 -6.122 H 1 FUZI_1    0.000
115 H_288922 3.693 -0.866 -5.276 H 1 FUZI_1    0.000
116 H_288941 3.752 2.839 -3.494 H 1 FUZI_1    0.000
117 H_288942 2.746 2.996 -4.966 H 1 FUZI_1    0.000
118 H_288931 4.900 0.984 -4.336 H 1 FUZI_1    0.000
119 H_288932 4.467 1.673 -5.918 H 1 FUZI_1    0.000
@<TRIPOS>BOND
1 1 29 1 
2 2 4 1 
3 2 118 1 
4 2 119 1 
5 3 2 1 
6 3 116 1 
7 3 117 1 
8 4 114 1 
9 4 115 1 
10 5 3 1 
11 7 5 1 
12 7 4 1 
13 7 113 1 
14 9 16 1 
15 9 111 1 
16 9 112 1 
17 10 11 1 
18 10 13 1 
19 10 109 1 
20 10 110 1 
21 11 22 1 
22 11 9 1 
23 12 26 1 
24 12 106 1 
25 12 107 1 
26 12 108 1 
27 13 105 1 
28 16 13 1 
29 17 45 1 
30 17 1 1 
31 17 103 1 
32 17 104 1 
33 18 1 1 
34 18 101 1 
35 18 102 1 
36 19 32 2 
37 21 23 1 
38 21 7 1 
39 21 6 2 
40 22 5 1 
41 22 8 2 
42 23 11 1 
43 23 24 1 
44 24 99 1 
45 24 100 1 
46 25 26 1 
47 25 96 1 
48 25 97 1 
49 25 98 1 
50 26 24 1 
51 26 95 1 
52 27 1 1 
53 27 16 1 
54 27 14 2 
55 28 13 1 
56 28 15 2 
57 29 28 1 
58 29 30 1 
59 30 93 1 
60 30 94 1 
61 31 32 1 
62 32 30 1 
63 33 40 2 
64 34 37 1 
65 34 91 1 
66 34 92 1 
67 35 39 2 
68 35 37 1 
69 35 90 1 
70 36 37 2 
71 36 89 1 
72 38 43 2 
73 38 33 1 
74 38 88 1 
75 39 33 1 
76 39 87 1 
77 40 36 1 
78 41 40 1 
79 41 86 1 
80 42 41 2 
81 42 85 1 
82 43 42 1 
83 43 84 1 
84 44 18 1 
85 44 34 1 
86 44 48 1 
87 45 44 1 
88 45 49 1 
89 46 49 2 
90 48 20 2 
91 49 47 1 
92 50 48 1 
93 50 47 1 
94 50 51 1 
95 51 82 1 
96 51 83 1 
97 52 66 1 
98 52 47 1 
99 52 80 1 
100 52 81 1 
101 53 47 1 
102 53 78 1 
103 53 79 1 
104 54 53 1 
105 54 76 1 
106 54 77 1 
107 55 54 1 
108 56 62 1 
109 57 56 2 
110 57 75 1 
111 58 60 2 
112 58 59 1 
113 58 74 1 
114 59 73 1 
115 60 51 1 
116 60 57 1 
117 61 65 2 
118 61 56 1 
119 61 72 1 
120 62 59 2 
121 63 62 1 
122 63 71 1 
123 64 63 2 
124 65 64 1 
125 66 55 1 
126 66 67 1 
127 66 68 1 
128 69 65 1 
129 70 64 1 
@<TRIPOS>SUBSTRUCTURE
1 CKW::FUZI_1 1 RESIDUE 1 CKW::A CKW::FUZI 1
