@<TRIPOS>MOLECULE
COMMON-LISP:NIL
119 129 1 0 0
POLYMER
CHARGES


@<TRIPOS>ATOM
1 C.b -0.646358 -1.08719 -1.93494 C.3 1 FUZI_1    0.000
2 C_28893 0.012 -10.380 -3.505 C.3 1 FUZI_1    0.000
3 C_28894 -0.550 -9.154 -4.244 C.3 1 FUZI_1    0.000
4 C_28892 1.243 -9.835 -2.772 C.3 1 FUZI_1    0.000
5 N -0.010 -7.966 -3.569 N.am 1 FUZI_1    0.000
6 O 3.015 -7.863 -1.680 O.2 1 FUZI_1    0.000
7 C.e 0.842 -8.382 -2.467 C.3 1 FUZI_1    0.000
8 O -1.105 -6.439 -4.745 O.2 1 FUZI_1    0.000
9 C_28904 -0.323 -4.933 -2.159 C.3 1 FUZI_1    0.000
10 C_28901 0.833 -4.419 -4.223 C.3 1 FUZI_1    0.000
11 C.d 0.592 -5.595 -3.222 C.3 1 FUZI_1    0.000
12 C_28918 2.929 -5.391 0.305 C.3 1 FUZI_1    0.000
13 C.c 0.680 -3.136 -3.388 C.3 1 FUZI_1    0.000
14 O -1.576 -2.926 -0.625 O.2 1 FUZI_1    0.000
15 O 0.464 -1.784 -5.336 O.2 1 FUZI_1    0.000
16 N -0.219 -3.475 -2.297 N.am 1 FUZI_1    0.000
17 C_28912 0.653 -0.603 -1.236 C.3 1 FUZI_1    0.000
18 C_28909 -1.738 -0.180 -1.262 C.3 1 FUZI_1    0.000
19 O 0.923 1.608 -3.750 O.co2 1 FUZI_1    0.000
20 O -2.903 1.971 0.257 O.2 1 FUZI_1    0.000
21 C_28900 1.997 -7.443 -2.199 C.2 1 FUZI_1    0.000
22 C_28897 -0.249 -6.685 -3.915 C.2 1 FUZI_1    0.000
23 N.d 1.849 -6.135 -2.565 N.am 1 FUZI_1    0.000
24 C.d2 2.953 -5.174 -2.261 C.3 1 FUZI_1    0.000
25 C_28917 3.971 -3.373 -0.803 C.3 1 FUZI_1    0.000
26 C_28916 2.851 -4.429 -0.900 C.3 1 FUZI_1    0.000
27 C_28908 -0.860 -2.560 -1.539 C.2 1 FUZI_1    0.000
28 C_28905 0.227 -1.905 -4.149 C.2 1 FUZI_1    0.000
29 N.b -0.455 -0.962 -3.431 N.am 1 FUZI_1    0.000
30 C.b2 -0.968 0.256 -4.114 C.3 1 FUZI_1    0.000
31 OH -0.980 2.469 -3.316 O.co2 1 FUZI_1    0.000
32 C_28922 -0.289 1.543 -3.690 C.2 1 FUZI_1    0.000
33 C_28929 0.141 1.293 4.837 C.2 1 FUZI_1    0.000
34 C.a2 -1.251 -0.370 1.229 C.3 1 FUZI_1    0.000
35 C_28931 0.553 0.203 2.837 C.2 1 FUZI_1    0.000
36 C_28927 -1.598 0.822 3.376 C.2 1 FUZI_1    0.000
37 C_28926 -0.744 0.256 2.517 C.2 1 FUZI_1    0.000
38 C_28935 0.571 1.812 5.992 C.2 1 FUZI_1    0.000
39 C_28930 0.995 0.723 3.982 C.2 1 FUZI_1    0.000
40 C_28928 -1.169 1.336 4.534 C.2 1 FUZI_1    0.000
41 C_28932 -2.030 1.883 5.398 C.2 1 FUZI_1    0.000
42 C_28933 -1.594 2.397 6.548 C.2 1 FUZI_1    0.000
43 C_28934 -0.294 2.364 6.844 C.2 1 FUZI_1    0.000
44 C.a -1.068 0.514 -0.045 C.3 1 FUZI_1    0.000
45 N 0.333 0.579 -0.428 N.am 1 FUZI_1    0.000
46 O 2.373 1.430 -0.407 O.2 1 FUZI_1    0.000
47 C_28938 0.620 2.959 0.258 C.3 1 FUZI_1    0.000
48 C_28936 -1.691 1.876 0.217 C.2 1 FUZI_1    0.000
49 C_28939 1.186 1.600 -0.200 C.2 1 FUZI_1    0.000
50 N.z -0.883 2.962 0.408 N.am 1 FUZI_1    0.000
51 C.z2 -1.499 4.277 0.763 C.3 1 FUZI_1    0.000
52 C_28975 1.072 3.975 -0.854 C.3 1 FUZI_1    0.000
53 C_28944 1.310 3.298 1.621 C.3 1 FUZI_1    0.000
54 C_28945 1.887 4.730 1.688 C.3 1 FUZI_1    0.000
55 NH 2.899 4.945 0.622 N.2 1 FUZI_1    0.000
56 C_28979 -4.189 4.361 3.348 C.2 1 FUZI_1    0.000
57 C_28980 -3.542 4.210 2.188 C.2 1 FUZI_1    0.000
58 C_28976 -1.564 4.811 3.191 C.2 1 FUZI_1    0.000
59 C_28977 -2.196 4.975 4.352 C.2 1 FUZI_1    0.000
60 C_28943 -2.224 4.419 2.095 C.2 1 FUZI_1    0.000
61 C_28984 -5.504 4.135 3.434 C.2 1 FUZI_1    0.000
62 C_28978 -3.509 4.748 4.443 C.2 1 FUZI_1    0.000
63 C_28981 -4.153 4.901 5.605 C.2 1 FUZI_1    0.000
64 C_28982 -5.464 4.671 5.681 C.2 1 FUZI_1    0.000
65 C_28983 -6.139 4.289 4.597 C.2 1 FUZI_1    0.000
66 C_28974 2.545 4.442 -0.735 C.3 1 FUZI_1    0.000
67 H_289741 3.225 3.627 -0.990 H 1 FUZI_1    0.000
68 H_289742 2.716 5.246 -1.455 H 1 FUZI_1    0.000
69 H_28983 -7.208 4.102 4.661 H 1 FUZI_1    0.000
70 H_28982 -5.983 4.796 6.628 H 1 FUZI_1    0.000
71 H_28981 -3.614 5.213 6.497 H 1 FUZI_1    0.000
72 H_28984 -6.069 3.823 2.558 H 1 FUZI_1    0.000
73 H_28977 -1.630 5.294 5.225 H 1 FUZI_1    0.000
74 H_28976 -0.500 5.014 3.146 H 1 FUZI_1    0.000
75 H_28980 -4.102 3.920 1.302 H 1 FUZI_1    0.000
76 H_289451 1.099 5.478 1.585 H 1 FUZI_1    0.000
77 H_289452 2.368 4.875 2.659 H 1 FUZI_1    0.000
78 H_289441 2.137 2.612 1.821 H 1 FUZI_1    0.000
79 H_289442 0.610 3.148 2.444 H 1 FUZI_1    0.000
80 H_289751 0.463 4.878 -0.861 H 1 FUZI_1    0.000
81 H_289752 0.927 3.533 -1.840 H 1 FUZI_1    0.000
82 H.z21 -2.200 4.525 -0.038 H 1 FUZI_1    0.000
83 H.z22 -0.748 5.062 0.748 H 1 FUZI_1    0.000
84 H_28934 0.060 2.784 7.782 H 1 FUZI_1    0.000
85 H_28933 -2.298 2.844 7.246 H 1 FUZI_1    0.000
86 H_28932 -3.093 1.917 5.169 H 1 FUZI_1    0.000
87 H_28930 2.056 0.672 4.214 H 1 FUZI_1    0.000
88 H_28935 1.628 1.787 6.249 H 1 FUZI_1    0.000
89 H_28927 -2.658 0.856 3.132 H 1 FUZI_1    0.000
90 H_28931 1.262 -0.269 2.161 H 1 FUZI_1    0.000
91 H.a21 -0.735 -1.323 1.100 H 1 FUZI_1    0.000
92 H.a22 -2.310 -0.617 1.345 H 1 FUZI_1    0.000
93 H.b21 -2.045 0.348 -3.959 H 1 FUZI_1    0.000
94 H.b22 -0.818 0.187 -5.193 H 1 FUZI_1    0.000
95 H_28916 1.905 -3.897 -0.835 H 1 FUZI_1    0.000
96 H_289171 4.956 -3.844 -0.846 H 1 FUZI_1    0.000
97 H_289172 3.895 -2.817 0.134 H 1 FUZI_1    0.000
98 H_289173 3.895 -2.658 -1.626 H 1 FUZI_1    0.000
99 H.d21 3.052 -4.438 -3.056 H 1 FUZI_1    0.000
100 H.d22 3.902 -5.716 -2.274 H 1 FUZI_1    0.000
101 H_289091 -2.634 -0.735 -0.975 H 1 FUZI_1    0.000
102 H_289092 -2.104 0.601 -1.919 H 1 FUZI_1    0.000
103 H_289121 1.052 -1.376 -0.573 H 1 FUZI_1    0.000
104 H_289122 1.421 -0.354 -1.974 H 1 FUZI_1    0.000
105 H.c 1.640 -2.863 -2.947 H 1 FUZI_1    0.000
106 H_289181 2.084 -6.083 0.306 H 1 FUZI_1    0.000
107 H_289182 2.898 -4.832 1.243 H 1 FUZI_1    0.000
108 H_289183 3.855 -5.970 0.283 H 1 FUZI_1    0.000
109 H_289011 0.068 -4.390 -5.001 H 1 FUZI_1    0.000
110 H_289012 1.793 -4.480 -4.738 H 1 FUZI_1    0.000
111 H_289041 -1.368 -5.211 -2.323 H 1 FUZI_1    0.000
112 H_289042 -0.036 -5.237 -1.149 H 1 FUZI_1    0.000
113 H.e 0.224 -8.367 -1.564 H 1 FUZI_1    0.000
114 H_288921 1.472 -10.402 -1.868 H 1 FUZI_1    0.000
115 H_288922 2.107 -9.857 -3.441 H 1 FUZI_1    0.000
116 H_288941 -0.208 -9.155 -5.282 H 1 FUZI_1    0.000
117 H_288942 -1.644 -9.150 -4.214 H 1 FUZI_1    0.000
118 H_288931 0.263 -11.195 -4.188 H 1 FUZI_1    0.000
119 H_288932 -0.721 -10.738 -2.778 H 1 FUZI_1    0.000
@<TRIPOS>BOND
1 1 29 1 
2 2 4 1 
3 2 118 1 
4 2 119 1 
5 3 2 1 
6 3 116 1 
7 3 117 1 
8 4 114 1 
9 4 115 1 
10 5 3 1 
11 7 5 1 
12 7 4 1 
13 7 113 1 
14 9 16 1 
15 9 111 1 
16 9 112 1 
17 10 11 1 
18 10 13 1 
19 10 109 1 
20 10 110 1 
21 11 22 1 
22 11 9 1 
23 12 26 1 
24 12 106 1 
25 12 107 1 
26 12 108 1 
27 13 105 1 
28 16 13 1 
29 17 45 1 
30 17 1 1 
31 17 103 1 
32 17 104 1 
33 18 1 1 
34 18 101 1 
35 18 102 1 
36 19 32 2 
37 21 23 1 
38 21 7 1 
39 21 6 2 
40 22 5 1 
41 22 8 2 
42 23 11 1 
43 23 24 1 
44 24 99 1 
45 24 100 1 
46 25 26 1 
47 25 96 1 
48 25 97 1 
49 25 98 1 
50 26 24 1 
51 26 95 1 
52 27 1 1 
53 27 16 1 
54 27 14 2 
55 28 13 1 
56 28 15 2 
57 29 28 1 
58 29 30 1 
59 30 93 1 
60 30 94 1 
61 31 32 1 
62 32 30 1 
63 33 40 2 
64 34 37 1 
65 34 91 1 
66 34 92 1 
67 35 39 2 
68 35 37 1 
69 35 90 1 
70 36 37 2 
71 36 89 1 
72 38 43 2 
73 38 33 1 
74 38 88 1 
75 39 33 1 
76 39 87 1 
77 40 36 1 
78 41 40 1 
79 41 86 1 
80 42 41 2 
81 42 85 1 
82 43 42 1 
83 43 84 1 
84 44 18 1 
85 44 34 1 
86 44 48 1 
87 45 44 1 
88 45 49 1 
89 46 49 2 
90 48 20 2 
91 49 47 1 
92 50 48 1 
93 50 47 1 
94 50 51 1 
95 51 82 1 
96 51 83 1 
97 52 66 1 
98 52 47 1 
99 52 80 1 
100 52 81 1 
101 53 47 1 
102 53 78 1 
103 53 79 1 
104 54 53 1 
105 54 76 1 
106 54 77 1 
107 55 54 1 
108 56 62 1 
109 57 56 2 
110 57 75 1 
111 58 60 2 
112 58 59 1 
113 58 74 1 
114 59 73 1 
115 60 51 1 
116 60 57 1 
117 61 65 2 
118 61 56 1 
119 61 72 1 
120 62 59 2 
121 63 62 1 
122 63 71 1 
123 64 63 2 
124 65 64 1 
125 66 55 1 
126 66 67 1 
127 66 68 1 
128 69 65 1 
129 70 64 1 
@<TRIPOS>SUBSTRUCTURE
1 CKW::FUZI_1 1 RESIDUE 1 CKW::A CKW::FUZI 1
