@<TRIPOS>MOLECULE
COMMON-LISP:NIL
119 129 1 0 0
POLYMER
CHARGES


@<TRIPOS>ATOM
1 C.b -0.354339 -1.85737 0.0659193 C.3 1 FUZI_1    0.000
2 C_28893 -3.932 -7.596 6.480 C.3 1 FUZI_1    0.000
3 C_28894 -4.086 -7.141 5.019 C.3 1 FUZI_1    0.000
4 C_28892 -3.443 -6.339 7.212 C.3 1 FUZI_1    0.000
5 N -3.305 -5.905 4.874 N.am 1 FUZI_1    0.000
6 O -2.122 -3.763 7.513 O.2 1 FUZI_1    0.000
7 C.e -2.633 -5.611 6.129 C.3 1 FUZI_1    0.000
8 O -3.587 -5.610 2.692 O.2 1 FUZI_1    0.000
9 C_28904 -1.176 -3.814 3.275 C.3 1 FUZI_1    0.000
10 C_28901 -3.374 -2.775 2.959 C.3 1 FUZI_1    0.000
11 C.d -2.596 -3.751 3.902 C.3 1 FUZI_1    0.000
12 C_28918 -2.480 0.419 6.572 C.3 1 FUZI_1    0.000
13 C.c -2.324 -2.080 2.074 C.3 1 FUZI_1    0.000
14 O 0.873 -3.537 1.320 O.2 1 FUZI_1    0.000
15 O -3.942 -1.578 0.377 O.2 1 FUZI_1    0.000
16 N -1.127 -2.918 2.118 N.am 1 FUZI_1    0.000
17 C_28912 0.672 -2.013 -1.091 C.3 1 FUZI_1    0.000
18 C_28909 0.096 -0.462 0.580 C.3 1 FUZI_1    0.000
19 O -1.295 -1.533 -3.590 O.co2 1 FUZI_1    0.000
20 O 1.647 1.925 0.796 O.2 1 FUZI_1    0.000
21 C_28900 -2.399 -4.140 6.390 C.2 1 FUZI_1    0.000
22 C_28897 -3.203 -5.159 3.756 C.2 1 FUZI_1    0.000
23 N.d -2.497 -3.279 5.334 N.am 1 FUZI_1    0.000
24 C.d2 -2.104 -1.854 5.529 C.3 1 FUZI_1    0.000
25 C_28917 -4.498 -0.928 5.875 C.3 1 FUZI_1    0.000
26 C_28916 -3.056 -1.004 6.418 C.3 1 FUZI_1    0.000
27 C_28908 -0.122 -2.846 1.213 C.2 1 FUZI_1    0.000
28 C_28905 -2.776 -1.793 0.649 C.2 1 FUZI_1    0.000
29 N.b -1.813 -1.863 -0.314 N.am 1 FUZI_1    0.000
30 C.b2 -2.191 -2.470 -1.620 C.3 1 FUZI_1    0.000
31 OH -3.177 -0.788 -2.925 O.co2 1 FUZI_1    0.000
32 C_28922 -2.216 -1.519 -2.799 C.2 1 FUZI_1    0.000
33 C_28929 -1.988 4.476 0.939 C.2 1 FUZI_1    0.000
34 C.a2 -0.616 1.156 -1.269 C.3 1 FUZI_1    0.000
35 C_28931 -2.071 2.214 0.452 C.2 1 FUZI_1    0.000
36 C_28927 -0.604 3.571 -0.686 C.2 1 FUZI_1    0.000
37 C_28926 -1.104 2.351 -0.462 C.2 1 FUZI_1    0.000
38 C_28935 -2.415 5.536 1.634 C.2 1 FUZI_1    0.000
39 C_28930 -2.505 3.263 1.151 C.2 1 FUZI_1    0.000
40 C_28928 -1.030 4.631 0.007 C.2 1 FUZI_1    0.000
41 C_28932 -0.516 5.846 -0.216 C.2 1 FUZI_1    0.000
42 C_28933 -0.946 6.897 0.482 C.2 1 FUZI_1    0.000
43 C_28934 -1.894 6.742 1.406 C.2 1 FUZI_1    0.000
44 C.a 0.576 0.359 -0.642 C.3 1 FUZI_1    0.000
45 N 1.057 -0.672 -1.567 N.am 1 FUZI_1    0.000
46 O 2.220 -1.378 -3.312 O.2 1 FUZI_1    0.000
47 C_28938 2.799 0.836 -2.492 C.3 1 FUZI_1    0.000
48 C_28936 1.703 1.313 -0.256 C.2 1 FUZI_1    0.000
49 C_28939 2.000 -0.484 -2.518 C.2 1 FUZI_1    0.000
50 N.z 2.779 1.425 -1.096 N.am 1 FUZI_1    0.000
51 C.z2 3.974 2.196 -0.645 C.3 1 FUZI_1    0.000
52 C_28975 2.098 1.826 -3.483 C.3 1 FUZI_1    0.000
53 C_28944 4.245 0.522 -3.038 C.3 1 FUZI_1    0.000
54 C_28945 4.322 0.352 -4.577 C.3 1 FUZI_1    0.000
55 NH 3.767 1.524 -5.311 N.2 1 FUZI_1    0.000
56 C_28979 5.488 5.093 -2.425 C.2 1 FUZI_1    0.000
57 C_28980 5.315 3.889 -1.870 C.2 1 FUZI_1    0.000
58 C_28976 3.194 4.483 -1.204 C.2 1 FUZI_1    0.000
59 C_28977 3.354 5.688 -1.751 C.2 1 FUZI_1    0.000
60 C_28943 4.165 3.568 -1.266 C.2 1 FUZI_1    0.000
61 C_28984 6.636 5.405 -3.038 C.2 1 FUZI_1    0.000
62 C_28978 4.497 6.001 -2.367 C.2 1 FUZI_1    0.000
63 C_28981 4.669 7.206 -2.922 C.2 1 FUZI_1    0.000
64 C_28982 5.816 7.508 -3.532 C.2 1 FUZI_1    0.000
65 C_28983 6.798 6.608 -3.589 C.2 1 FUZI_1    0.000
66 C_28974 3.048 2.524 -4.480 C.3 1 FUZI_1    0.000
67 H_289741 2.463 3.170 -5.139 H 1 FUZI_1    0.000
68 H_289742 3.773 3.144 -3.951 H 1 FUZI_1    0.000
69 H_28983 7.733 6.855 -4.087 H 1 FUZI_1    0.000
70 H_28982 5.951 8.488 -3.982 H 1 FUZI_1    0.000
71 H_28981 3.876 7.950 -2.882 H 1 FUZI_1    0.000
72 H_28984 7.446 4.680 -3.093 H 1 FUZI_1    0.000
73 H_28977 2.546 6.413 -1.690 H 1 FUZI_1    0.000
74 H_28976 2.260 4.250 -0.703 H 1 FUZI_1    0.000
75 H_28980 6.118 3.156 -1.916 H 1 FUZI_1    0.000
76 H_289451 5.370 0.235 -4.863 H 1 FUZI_1    0.000
77 H_289452 3.791 -0.544 -4.903 H 1 FUZI_1    0.000
78 H_289441 4.649 -0.365 -2.544 H 1 FUZI_1    0.000
79 H_289442 4.940 1.331 -2.828 H 1 FUZI_1    0.000
80 H_289751 1.565 2.601 -2.930 H 1 FUZI_1    0.000
81 H_289752 1.341 1.296 -4.068 H 1 FUZI_1    0.000
82 H.z21 4.869 1.585 -0.778 H 1 FUZI_1    0.000
83 H.z22 3.921 2.344 0.435 H 1 FUZI_1    0.000
84 H_28934 -2.244 7.601 1.974 H 1 FUZI_1    0.000
85 H_28933 -0.523 7.882 0.297 H 1 FUZI_1    0.000
86 H_28932 0.257 5.988 -0.969 H 1 FUZI_1    0.000
87 H_28930 -3.288 3.120 1.894 H 1 FUZI_1    0.000
88 H_28935 -3.189 5.424 2.390 H 1 FUZI_1    0.000
89 H_28927 0.164 3.699 -1.445 H 1 FUZI_1    0.000
90 H_28931 -2.516 1.240 0.636 H 1 FUZI_1    0.000
91 H.a21 -1.462 0.494 -1.414 H 1 FUZI_1    0.000
92 H.a22 -0.346 1.492 -2.270 H 1 FUZI_1    0.000
93 H.b21 -3.199 -2.888 -1.551 H 1 FUZI_1    0.000
94 H.b22 -1.538 -3.312 -1.859 H 1 FUZI_1    0.000
95 H_28916 -3.102 -1.444 7.416 H 1 FUZI_1    0.000
96 H_289171 -4.529 -0.399 4.920 H 1 FUZI_1    0.000
97 H_289172 -5.138 -0.388 6.577 H 1 FUZI_1    0.000
98 H_289173 -4.919 -1.927 5.742 H 1 FUZI_1    0.000
99 H.d21 -1.987 -1.347 4.575 H 1 FUZI_1    0.000
100 H.d22 -1.115 -1.853 5.995 H 1 FUZI_1    0.000
101 H_289091 0.948 -0.603 1.253 H 1 FUZI_1    0.000
102 H_289092 -0.670 0.048 1.162 H 1 FUZI_1    0.000
103 H_289121 1.590 -2.469 -0.713 H 1 FUZI_1    0.000
104 H_289122 0.328 -2.632 -1.917 H 1 FUZI_1    0.000
105 H.c -2.067 -1.112 2.510 H 1 FUZI_1    0.000
106 H_289181 -3.112 1.022 7.228 H 1 FUZI_1    0.000
107 H_289182 -2.415 0.920 5.602 H 1 FUZI_1    0.000
108 H_289183 -1.479 0.383 7.007 H 1 FUZI_1    0.000
109 H_289011 -3.968 -2.044 3.501 H 1 FUZI_1    0.000
110 H_289012 -4.080 -3.306 2.319 H 1 FUZI_1    0.000
111 H_289041 -0.417 -3.497 3.996 H 1 FUZI_1    0.000
112 H_289042 -0.937 -4.830 2.947 H 1 FUZI_1    0.000
113 H.e -1.640 -6.065 6.069 H 1 FUZI_1    0.000
114 H_288921 -4.299 -5.731 7.517 H 1 FUZI_1    0.000
115 H_288922 -2.841 -6.580 8.092 H 1 FUZI_1    0.000
116 H_288941 -3.721 -7.909 4.332 H 1 FUZI_1    0.000
117 H_288942 -5.136 -6.920 4.805 H 1 FUZI_1    0.000
118 H_288931 -3.171 -8.378 6.543 H 1 FUZI_1    0.000
119 H_288932 -4.868 -7.977 6.895 H 1 FUZI_1    0.000
@<TRIPOS>BOND
1 1 29 1 
2 2 4 1 
3 2 118 1 
4 2 119 1 
5 3 2 1 
6 3 116 1 
7 3 117 1 
8 4 114 1 
9 4 115 1 
10 5 3 1 
11 7 5 1 
12 7 4 1 
13 7 113 1 
14 9 16 1 
15 9 111 1 
16 9 112 1 
17 10 11 1 
18 10 13 1 
19 10 109 1 
20 10 110 1 
21 11 22 1 
22 11 9 1 
23 12 26 1 
24 12 106 1 
25 12 107 1 
26 12 108 1 
27 13 105 1 
28 16 13 1 
29 17 45 1 
30 17 1 1 
31 17 103 1 
32 17 104 1 
33 18 1 1 
34 18 101 1 
35 18 102 1 
36 19 32 2 
37 21 23 1 
38 21 7 1 
39 21 6 2 
40 22 5 1 
41 22 8 2 
42 23 11 1 
43 23 24 1 
44 24 99 1 
45 24 100 1 
46 25 26 1 
47 25 96 1 
48 25 97 1 
49 25 98 1 
50 26 24 1 
51 26 95 1 
52 27 1 1 
53 27 16 1 
54 27 14 2 
55 28 13 1 
56 28 15 2 
57 29 28 1 
58 29 30 1 
59 30 93 1 
60 30 94 1 
61 31 32 1 
62 32 30 1 
63 33 40 2 
64 34 37 1 
65 34 91 1 
66 34 92 1 
67 35 39 2 
68 35 37 1 
69 35 90 1 
70 36 37 2 
71 36 89 1 
72 38 43 2 
73 38 33 1 
74 38 88 1 
75 39 33 1 
76 39 87 1 
77 40 36 1 
78 41 40 1 
79 41 86 1 
80 42 41 2 
81 42 85 1 
82 43 42 1 
83 43 84 1 
84 44 18 1 
85 44 34 1 
86 44 48 1 
87 45 44 1 
88 45 49 1 
89 46 49 2 
90 48 20 2 
91 49 47 1 
92 50 48 1 
93 50 47 1 
94 50 51 1 
95 51 82 1 
96 51 83 1 
97 52 66 1 
98 52 47 1 
99 52 80 1 
100 52 81 1 
101 53 47 1 
102 53 78 1 
103 53 79 1 
104 54 53 1 
105 54 76 1 
106 54 77 1 
107 55 54 1 
108 56 62 1 
109 57 56 2 
110 57 75 1 
111 58 60 2 
112 58 59 1 
113 58 74 1 
114 59 73 1 
115 60 51 1 
116 60 57 1 
117 61 65 2 
118 61 56 1 
119 61 72 1 
120 62 59 2 
121 63 62 1 
122 63 71 1 
123 64 63 2 
124 65 64 1 
125 66 55 1 
126 66 67 1 
127 66 68 1 
128 69 65 1 
129 70 64 1 
@<TRIPOS>SUBSTRUCTURE
1 CKW::FUZI_1 1 RESIDUE 1 CKW::A CKW::FUZI 1
