@<TRIPOS>MOLECULE
COMMON-LISP:NIL
119 129 1 0 0
POLYMER
CHARGES


@<TRIPOS>ATOM
1 C.b 0.192907 -0.249881 1.65727 C.3 1 FUZI_1    0.000
2 C_28893 -6.586 4.487 0.061 C.3 1 FUZI_1    0.000
3 C_28894 -5.682 3.532 0.859 C.3 1 FUZI_1    0.000
4 C_28892 -5.608 5.271 -0.822 C.3 1 FUZI_1    0.000
5 N -4.314 4.064 0.773 N.am 1 FUZI_1    0.000
6 O -3.097 6.491 -1.589 O.2 1 FUZI_1    0.000
7 C.e -4.350 5.329 0.056 C.3 1 FUZI_1    0.000
8 O -3.299 2.389 1.817 O.2 1 FUZI_1    0.000
9 C_28904 -1.298 2.740 -0.256 C.3 1 FUZI_1    0.000
10 C_28901 -0.863 3.939 1.821 C.3 1 FUZI_1    0.000
11 C.d -1.844 3.903 0.614 C.3 1 FUZI_1    0.000
12 C_28918 1.387 7.219 -0.277 C.3 1 FUZI_1    0.000
13 C.c -0.146 2.569 1.837 C.3 1 FUZI_1    0.000
14 O -0.755 -0.014 -0.574 O.2 1 FUZI_1    0.000
15 O -0.570 2.253 4.172 O.2 1 FUZI_1    0.000
16 N -0.566 1.843 0.640 N.am 1 FUZI_1    0.000
17 C_28912 1.725 -0.180 1.526 C.3 1 FUZI_1    0.000
18 C_28909 0.015 -1.791 1.480 C.3 1 FUZI_1    0.000
19 O 1.396 -0.639 4.966 O.co2 1 FUZI_1    0.000
20 O -0.348 -3.424 -0.898 O.2 1 FUZI_1    0.000
21 C_28900 -3.073 5.708 -0.658 C.2 1 FUZI_1    0.000
22 C_28897 -3.201 3.395 1.137 C.2 1 FUZI_1    0.000
23 N.d -1.910 5.174 -0.188 N.am 1 FUZI_1    0.000
24 C.d2 -0.601 5.706 -0.662 C.3 1 FUZI_1    0.000
25 C_28917 -0.922 8.234 -0.237 C.3 1 FUZI_1    0.000
26 C_28916 -0.093 6.972 0.086 C.3 1 FUZI_1    0.000
27 C_28908 -0.401 0.514 0.462 C.2 1 FUZI_1    0.000
28 C_28905 -0.335 1.736 3.096 C.2 1 FUZI_1    0.000
29 N.b -0.258 0.380 2.947 N.am 1 FUZI_1    0.000
30 C.b2 -0.768 -0.512 4.016 C.3 1 FUZI_1    0.000
31 OH 0.020 -2.200 5.431 O.co2 1 FUZI_1    0.000
32 C_28922 0.305 -1.165 4.865 C.2 1 FUZI_1    0.000
33 C_28929 4.289 -2.971 4.498 C.2 1 FUZI_1    0.000
34 C.a2 1.887 -3.527 1.077 C.3 1 FUZI_1    0.000
35 C_28931 3.965 -2.772 2.216 C.2 1 FUZI_1    0.000
36 C_28927 2.314 -3.699 3.523 C.2 1 FUZI_1    0.000
37 C_28926 2.745 -3.311 2.317 C.2 1 FUZI_1    0.000
38 C_28935 5.045 -2.800 5.588 C.2 1 FUZI_1    0.000
39 C_28930 4.727 -2.594 3.295 C.2 1 FUZI_1    0.000
40 C_28928 3.073 -3.536 4.612 C.2 1 FUZI_1    0.000
41 C_28932 2.638 -3.929 5.815 C.2 1 FUZI_1    0.000
42 C_28933 3.399 -3.754 6.896 C.2 1 FUZI_1    0.000
43 C_28934 4.600 -3.189 6.783 C.2 1 FUZI_1    0.000
44 C.a 1.157 -2.260 0.521 C.3 1 FUZI_1    0.000
45 N 2.061 -1.109 0.442 N.am 1 FUZI_1    0.000
46 O 3.667 0.095 -0.487 O.2 1 FUZI_1    0.000
47 C_28938 2.517 -1.437 -1.976 C.3 1 FUZI_1    0.000
48 C_28936 0.609 -2.672 -0.839 C.2 1 FUZI_1    0.000
49 C_28939 2.809 -0.758 -0.625 C.2 1 FUZI_1    0.000
50 N.z 1.220 -2.208 -1.970 N.am 1 FUZI_1    0.000
51 C.z2 0.705 -2.638 -3.303 C.3 1 FUZI_1    0.000
52 C_28975 3.697 -2.428 -2.233 C.3 1 FUZI_1    0.000
53 C_28944 2.525 -0.302 -3.070 C.3 1 FUZI_1    0.000
54 C_28945 3.345 -0.656 -4.333 C.3 1 FUZI_1    0.000
55 NH 4.762 -0.944 -3.981 N.2 1 FUZI_1    0.000
56 C_28979 -1.051 -0.456 -5.757 C.2 1 FUZI_1    0.000
57 C_28980 -0.146 -1.249 -5.174 C.2 1 FUZI_1    0.000
58 C_28976 -1.495 -1.458 -3.324 C.2 1 FUZI_1    0.000
59 C_28977 -2.407 -0.669 -3.893 C.2 1 FUZI_1    0.000
60 C_28943 -0.350 -1.751 -3.950 C.2 1 FUZI_1    0.000
61 C_28984 -0.834 0.049 -6.977 C.2 1 FUZI_1    0.000
62 C_28978 -2.193 -0.161 -5.109 C.2 1 FUZI_1    0.000
63 C_28981 -3.099 0.634 -5.690 C.2 1 FUZI_1    0.000
64 C_28982 -2.873 1.133 -6.906 C.2 1 FUZI_1    0.000
65 C_28983 -1.742 0.841 -7.548 C.2 1 FUZI_1    0.000
66 C_28974 4.983 -1.729 -2.733 C.3 1 FUZI_1    0.000
67 H_289741 5.372 -1.062 -1.961 H 1 FUZI_1    0.000
68 H_289742 5.743 -2.490 -2.933 H 1 FUZI_1    0.000
69 H_28983 -1.560 1.249 -8.540 H 1 FUZI_1    0.000
70 H_28982 -3.613 1.779 -7.373 H 1 FUZI_1    0.000
71 H_28981 -4.026 0.880 -5.177 H 1 FUZI_1    0.000
72 H_28984 0.084 -0.180 -7.513 H 1 FUZI_1    0.000
73 H_28977 -3.326 -0.445 -3.356 H 1 FUZI_1    0.000
74 H_28976 -1.700 -1.857 -2.336 H 1 FUZI_1    0.000
75 H_28980 0.775 -1.485 -5.701 H 1 FUZI_1    0.000
76 H_289451 2.927 -1.520 -4.849 H 1 FUZI_1    0.000
77 H_289452 3.323 0.193 -5.020 H 1 FUZI_1    0.000
78 H_289441 2.956 0.624 -2.689 H 1 FUZI_1    0.000
79 H_289442 1.510 -0.017 -3.344 H 1 FUZI_1    0.000
80 H_289751 3.417 -3.177 -2.976 H 1 FUZI_1    0.000
81 H_289752 3.925 -2.983 -1.321 H 1 FUZI_1    0.000
82 H.z21 0.282 -3.642 -3.208 H 1 FUZI_1    0.000
83 H.z22 1.541 -2.758 -3.990 H 1 FUZI_1    0.000
84 H_28934 5.219 -3.047 7.666 H 1 FUZI_1    0.000
85 H_28933 3.038 -4.073 7.871 H 1 FUZI_1    0.000
86 H_28932 1.660 -4.393 5.923 H 1 FUZI_1    0.000
87 H_28930 5.711 -2.144 3.182 H 1 FUZI_1    0.000
88 H_28935 6.030 -2.343 5.509 H 1 FUZI_1    0.000
89 H_28927 1.332 -4.157 3.615 H 1 FUZI_1    0.000
90 H_28931 4.349 -2.469 1.245 H 1 FUZI_1    0.000
91 H.a21 2.531 -3.934 0.294 H 1 FUZI_1    0.000
92 H.a22 1.145 -4.306 1.274 H 1 FUZI_1    0.000
93 H.b21 -1.395 -1.297 3.587 H 1 FUZI_1    0.000
94 H.b22 -1.402 0.051 4.705 H 1 FUZI_1    0.000
95 H_28916 -0.148 6.810 1.163 H 1 FUZI_1    0.000
96 H_289171 -0.476 9.115 0.232 H 1 FUZI_1    0.000
97 H_289172 -1.939 8.141 0.148 H 1 FUZI_1    0.000
98 H_289173 -0.967 8.408 -1.315 H 1 FUZI_1    0.000
99 H.d21 -0.667 5.923 -1.732 H 1 FUZI_1    0.000
100 H.d22 0.164 4.936 -0.549 H 1 FUZI_1    0.000
101 H_289091 -0.987 -2.036 1.119 H 1 FUZI_1    0.000
102 H_289092 0.140 -2.311 2.427 H 1 FUZI_1    0.000
103 H_289121 2.056 0.836 1.294 H 1 FUZI_1    0.000
104 H_289122 2.209 -0.515 2.447 H 1 FUZI_1    0.000
105 H.c 0.930 2.742 1.755 H 1 FUZI_1    0.000
106 H_289181 1.776 8.086 0.261 H 1 FUZI_1    0.000
107 H_289182 1.500 7.399 -1.348 H 1 FUZI_1    0.000
108 H_289183 1.998 6.354 -0.006 H 1 FUZI_1    0.000
109 H_289011 -1.392 4.160 2.751 H 1 FUZI_1    0.000
110 H_289012 -0.094 4.700 1.711 H 1 FUZI_1    0.000
111 H_289041 -2.117 2.207 -0.749 H 1 FUZI_1    0.000
112 H_289042 -0.605 3.087 -1.024 H 1 FUZI_1    0.000
113 H.e -4.496 6.106 0.813 H 1 FUZI_1    0.000
114 H_288921 -5.403 4.714 -1.740 H 1 FUZI_1    0.000
115 H_288922 -5.985 6.264 -1.078 H 1 FUZI_1    0.000
116 H_288941 -6.004 3.471 1.902 H 1 FUZI_1    0.000
117 H_288942 -5.703 2.536 0.406 H 1 FUZI_1    0.000
118 H_288931 -7.094 5.171 0.747 H 1 FUZI_1    0.000
119 H_288932 -7.336 3.952 -0.527 H 1 FUZI_1    0.000
@<TRIPOS>BOND
1 1 29 1 
2 2 4 1 
3 2 118 1 
4 2 119 1 
5 3 2 1 
6 3 116 1 
7 3 117 1 
8 4 114 1 
9 4 115 1 
10 5 3 1 
11 7 5 1 
12 7 4 1 
13 7 113 1 
14 9 16 1 
15 9 111 1 
16 9 112 1 
17 10 11 1 
18 10 13 1 
19 10 109 1 
20 10 110 1 
21 11 22 1 
22 11 9 1 
23 12 26 1 
24 12 106 1 
25 12 107 1 
26 12 108 1 
27 13 105 1 
28 16 13 1 
29 17 45 1 
30 17 1 1 
31 17 103 1 
32 17 104 1 
33 18 1 1 
34 18 101 1 
35 18 102 1 
36 19 32 2 
37 21 23 1 
38 21 7 1 
39 21 6 2 
40 22 5 1 
41 22 8 2 
42 23 11 1 
43 23 24 1 
44 24 99 1 
45 24 100 1 
46 25 26 1 
47 25 96 1 
48 25 97 1 
49 25 98 1 
50 26 24 1 
51 26 95 1 
52 27 1 1 
53 27 16 1 
54 27 14 2 
55 28 13 1 
56 28 15 2 
57 29 28 1 
58 29 30 1 
59 30 93 1 
60 30 94 1 
61 31 32 1 
62 32 30 1 
63 33 40 2 
64 34 37 1 
65 34 91 1 
66 34 92 1 
67 35 39 2 
68 35 37 1 
69 35 90 1 
70 36 37 2 
71 36 89 1 
72 38 43 2 
73 38 33 1 
74 38 88 1 
75 39 33 1 
76 39 87 1 
77 40 36 1 
78 41 40 1 
79 41 86 1 
80 42 41 2 
81 42 85 1 
82 43 42 1 
83 43 84 1 
84 44 18 1 
85 44 34 1 
86 44 48 1 
87 45 44 1 
88 45 49 1 
89 46 49 2 
90 48 20 2 
91 49 47 1 
92 50 48 1 
93 50 47 1 
94 50 51 1 
95 51 82 1 
96 51 83 1 
97 52 66 1 
98 52 47 1 
99 52 80 1 
100 52 81 1 
101 53 47 1 
102 53 78 1 
103 53 79 1 
104 54 53 1 
105 54 76 1 
106 54 77 1 
107 55 54 1 
108 56 62 1 
109 57 56 2 
110 57 75 1 
111 58 60 2 
112 58 59 1 
113 58 74 1 
114 59 73 1 
115 60 51 1 
116 60 57 1 
117 61 65 2 
118 61 56 1 
119 61 72 1 
120 62 59 2 
121 63 62 1 
122 63 71 1 
123 64 63 2 
124 65 64 1 
125 66 55 1 
126 66 67 1 
127 66 68 1 
128 69 65 1 
129 70 64 1 
@<TRIPOS>SUBSTRUCTURE
1 CKW::FUZI_1 1 RESIDUE 1 CKW::A CKW::FUZI 1
