@<TRIPOS>MOLECULE
COMMON-LISP:NIL
119 129 1 0 0
POLYMER
CHARGES


@<TRIPOS>ATOM
1 C.b -1.51022 -0.0991001 -1.7099 C.3 1 FUZI_1    0.000
2 C_28893 -6.832 5.845 -5.291 C.3 1 FUZI_1    0.000
3 C_28894 -5.719 5.770 -4.225 C.3 1 FUZI_1    0.000
4 C_28892 -7.677 4.584 -5.056 C.3 1 FUZI_1    0.000
5 N -6.088 4.690 -3.297 N.am 1 FUZI_1    0.000
6 O -9.115 2.673 -3.226 O.2 1 FUZI_1    0.000
7 C.e -7.481 4.352 -3.555 C.3 1 FUZI_1    0.000
8 O -4.066 4.322 -2.449 O.2 1 FUZI_1    0.000
9 C_28904 -4.760 1.924 -1.165 C.3 1 FUZI_1    0.000
10 C_28901 -5.032 1.602 -3.533 C.3 1 FUZI_1    0.000
11 C.d -5.605 2.451 -2.369 C.3 1 FUZI_1    0.000
12 C_28918 -7.996 -1.163 -0.670 C.3 1 FUZI_1    0.000
13 C.c -3.564 1.351 -3.152 C.3 1 FUZI_1    0.000
14 O -2.551 0.907 0.240 O.2 1 FUZI_1    0.000
15 O -3.287 -0.228 -4.903 O.2 1 FUZI_1    0.000
16 N -3.530 1.325 -1.701 N.am 1 FUZI_1    0.000
17 C_28912 -0.220 0.738 -1.797 C.3 1 FUZI_1    0.000
18 C_28909 -1.069 -1.308 -0.820 C.3 1 FUZI_1    0.000
19 O -0.705 -1.696 -6.082 O.co2 1 FUZI_1    0.000
20 O 0.571 -3.666 -0.837 O.2 1 FUZI_1    0.000
21 C_28900 -7.963 3.013 -3.038 C.2 1 FUZI_1    0.000
22 C_28897 -5.184 3.897 -2.680 C.2 1 FUZI_1    0.000
23 N.d -7.097 2.267 -2.297 N.am 1 FUZI_1    0.000
24 C.d2 -7.634 1.240 -1.360 C.3 1 FUZI_1    0.000
25 C_28917 -8.216 -0.537 -3.108 C.3 1 FUZI_1    0.000
26 C_28916 -7.469 -0.240 -1.788 C.3 1 FUZI_1    0.000
27 C_28908 -2.557 0.750 -0.966 C.2 1 FUZI_1    0.000
28 C_28905 -2.927 0.143 -3.801 C.2 1 FUZI_1    0.000
29 N.b -1.949 -0.501 -3.100 N.am 1 FUZI_1    0.000
30 C.b2 -1.165 -1.570 -3.779 C.3 1 FUZI_1    0.000
31 OH 0.299 -0.169 -4.986 O.co2 1 FUZI_1    0.000
32 C_28922 -0.462 -1.114 -5.044 C.2 1 FUZI_1    0.000
33 C_28929 0.230 2.654 2.478 C.2 1 FUZI_1    0.000
34 C.a2 0.992 -1.100 0.724 C.3 1 FUZI_1    0.000
35 C_28931 1.515 1.298 1.113 C.2 1 FUZI_1    0.000
36 C_28927 -0.323 0.421 2.183 C.2 1 FUZI_1    0.000
37 C_28926 0.710 0.257 1.351 C.2 1 FUZI_1    0.000
38 C_28935 -0.024 3.843 3.035 C.2 1 FUZI_1    0.000
39 C_28930 1.276 2.487 1.665 C.2 1 FUZI_1    0.000
40 C_28928 -0.576 1.609 2.742 C.2 1 FUZI_1    0.000
41 C_28932 -1.623 1.771 3.559 C.2 1 FUZI_1    0.000
42 C_28933 -1.869 2.961 4.108 C.2 1 FUZI_1    0.000
43 C_28934 -1.071 3.996 3.846 C.2 1 FUZI_1    0.000
44 C.a 0.492 -1.294 -0.746 C.3 1 FUZI_1    0.000
45 N 0.905 -0.186 -1.609 N.am 1 FUZI_1    0.000
46 O 2.382 0.969 -2.783 O.2 1 FUZI_1    0.000
47 C_28938 2.944 -1.360 -2.405 C.3 1 FUZI_1    0.000
48 C_28936 1.091 -2.622 -1.188 C.2 1 FUZI_1    0.000
49 C_28939 2.071 -0.096 -2.282 C.2 1 FUZI_1    0.000
50 N.z 2.227 -2.612 -1.949 N.am 1 FUZI_1    0.000
51 C.z2 2.863 -3.919 -2.299 C.3 1 FUZI_1    0.000
52 C_28975 4.198 -1.097 -1.510 C.3 1 FUZI_1    0.000
53 C_28944 3.378 -1.459 -3.916 C.3 1 FUZI_1    0.000
54 C_28945 4.871 -1.822 -4.097 C.3 1 FUZI_1    0.000
55 NH 5.747 -0.792 -3.475 N.2 1 FUZI_1    0.000
56 C_28979 4.697 -4.886 0.809 C.2 1 FUZI_1    0.000
57 C_28980 3.761 -4.408 -0.017 C.2 1 FUZI_1    0.000
58 C_28976 5.027 -5.025 -1.836 C.2 1 FUZI_1    0.000
59 C_28977 5.968 -5.507 -1.024 C.2 1 FUZI_1    0.000
60 C_28943 3.915 -4.468 -1.346 C.2 1 FUZI_1    0.000
61 C_28984 4.537 -4.817 2.135 C.2 1 FUZI_1    0.000
62 C_28978 5.812 -5.441 0.301 C.2 1 FUZI_1    0.000
63 C_28981 6.750 -5.918 1.127 C.2 1 FUZI_1    0.000
64 C_28982 6.582 -5.845 2.448 C.2 1 FUZI_1    0.000
65 C_28983 5.477 -5.295 2.951 C.2 1 FUZI_1    0.000
66 C_28974 5.261 -0.205 -2.194 C.3 1 FUZI_1    0.000
67 H_289741 4.854 0.789 -2.390 H 1 FUZI_1    0.000
68 H_289742 6.114 -0.093 -1.520 H 1 FUZI_1    0.000
69 H_28983 5.342 -5.236 4.029 H 1 FUZI_1    0.000
70 H_28982 7.348 -6.235 3.115 H 1 FUZI_1    0.000
71 H_28981 7.657 -6.370 0.730 H 1 FUZI_1    0.000
72 H_28984 3.641 -4.370 2.561 H 1 FUZI_1    0.000
73 H_28977 6.863 -5.953 -1.452 H 1 FUZI_1    0.000
74 H_28976 5.175 -5.090 -2.911 H 1 FUZI_1    0.000
75 H_28980 2.865 -3.960 0.403 H 1 FUZI_1    0.000
76 H_289451 5.094 -2.792 -3.649 H 1 FUZI_1    0.000
77 H_289452 5.099 -1.877 -5.165 H 1 FUZI_1    0.000
78 H_289441 3.233 -0.516 -4.446 H 1 FUZI_1    0.000
79 H_289442 2.746 -2.169 -4.454 H 1 FUZI_1    0.000
80 H_289751 4.694 -2.030 -1.249 H 1 FUZI_1    0.000
81 H_289752 3.899 -0.640 -0.565 H 1 FUZI_1    0.000
82 H.z21 3.287 -3.876 -3.300 H 1 FUZI_1    0.000
83 H.z22 2.077 -4.674 -2.382 H 1 FUZI_1    0.000
84 H_28934 -1.273 4.965 4.295 H 1 FUZI_1    0.000
85 H_28933 -2.723 3.088 4.770 H 1 FUZI_1    0.000
86 H_28932 -2.284 0.936 3.781 H 1 FUZI_1    0.000
87 H_28930 1.943 3.318 1.446 H 1 FUZI_1    0.000
88 H_28935 0.620 4.696 2.830 H 1 FUZI_1    0.000
89 H_28927 -0.975 -0.423 2.399 H 1 FUZI_1    0.000
90 H_28931 2.373 1.183 0.455 H 1 FUZI_1    0.000
91 H.a21 2.072 -1.266 0.755 H 1 FUZI_1    0.000
92 H.a22 0.565 -1.888 1.351 H 1 FUZI_1    0.000
93 H.b21 -1.845 -2.383 -4.049 H 1 FUZI_1    0.000
94 H.b22 -0.383 -1.983 -3.150 H 1 FUZI_1    0.000
95 H_28916 -6.410 -0.467 -1.920 H 1 FUZI_1    0.000
96 H_289171 -8.089 -1.585 -3.392 H 1 FUZI_1    0.000
97 H_289172 -7.833 0.078 -3.925 H 1 FUZI_1    0.000
98 H_289173 -9.285 -0.338 -3.002 H 1 FUZI_1    0.000
99 H.d21 -8.703 1.420 -1.219 H 1 FUZI_1    0.000
100 H.d22 -7.200 1.393 -0.371 H 1 FUZI_1    0.000
101 H_289091 -1.461 -2.242 -1.230 H 1 FUZI_1    0.000
102 H_289092 -1.488 -1.260 0.185 H 1 FUZI_1    0.000
103 H_289121 -0.156 1.249 -2.761 H 1 FUZI_1    0.000
104 H_289122 -0.189 1.487 -1.002 H 1 FUZI_1    0.000
105 H.c -2.960 2.205 -3.471 H 1 FUZI_1    0.000
106 H_289181 -7.862 -2.212 -0.943 H 1 FUZI_1    0.000
107 H_289182 -9.059 -0.987 -0.487 H 1 FUZI_1    0.000
108 H_289183 -7.452 -0.984 0.261 H 1 FUZI_1    0.000
109 H_289011 -5.117 2.106 -4.500 H 1 FUZI_1    0.000
110 H_289012 -5.548 0.647 -3.614 H 1 FUZI_1    0.000
111 H_289041 -4.521 2.731 -0.467 H 1 FUZI_1    0.000
112 H_289042 -5.253 1.125 -0.615 H 1 FUZI_1    0.000
113 H.e -8.081 5.091 -3.015 H 1 FUZI_1    0.000
114 H_288921 -8.726 4.732 -5.323 H 1 FUZI_1    0.000
115 H_288922 -7.272 3.743 -5.625 H 1 FUZI_1    0.000
116 H_288941 -4.765 5.531 -4.703 H 1 FUZI_1    0.000
117 H_288942 -5.634 6.717 -3.685 H 1 FUZI_1    0.000
118 H_288931 -6.426 5.879 -6.304 H 1 FUZI_1    0.000
119 H_288932 -7.441 6.737 -5.123 H 1 FUZI_1    0.000
@<TRIPOS>BOND
1 1 29 1 
2 2 4 1 
3 2 118 1 
4 2 119 1 
5 3 2 1 
6 3 116 1 
7 3 117 1 
8 4 114 1 
9 4 115 1 
10 5 3 1 
11 7 5 1 
12 7 4 1 
13 7 113 1 
14 9 16 1 
15 9 111 1 
16 9 112 1 
17 10 11 1 
18 10 13 1 
19 10 109 1 
20 10 110 1 
21 11 22 1 
22 11 9 1 
23 12 26 1 
24 12 106 1 
25 12 107 1 
26 12 108 1 
27 13 105 1 
28 16 13 1 
29 17 45 1 
30 17 1 1 
31 17 103 1 
32 17 104 1 
33 18 1 1 
34 18 101 1 
35 18 102 1 
36 19 32 2 
37 21 23 1 
38 21 7 1 
39 21 6 2 
40 22 5 1 
41 22 8 2 
42 23 11 1 
43 23 24 1 
44 24 99 1 
45 24 100 1 
46 25 26 1 
47 25 96 1 
48 25 97 1 
49 25 98 1 
50 26 24 1 
51 26 95 1 
52 27 1 1 
53 27 16 1 
54 27 14 2 
55 28 13 1 
56 28 15 2 
57 29 28 1 
58 29 30 1 
59 30 93 1 
60 30 94 1 
61 31 32 1 
62 32 30 1 
63 33 40 2 
64 34 37 1 
65 34 91 1 
66 34 92 1 
67 35 39 2 
68 35 37 1 
69 35 90 1 
70 36 37 2 
71 36 89 1 
72 38 43 2 
73 38 33 1 
74 38 88 1 
75 39 33 1 
76 39 87 1 
77 40 36 1 
78 41 40 1 
79 41 86 1 
80 42 41 2 
81 42 85 1 
82 43 42 1 
83 43 84 1 
84 44 18 1 
85 44 34 1 
86 44 48 1 
87 45 44 1 
88 45 49 1 
89 46 49 2 
90 48 20 2 
91 49 47 1 
92 50 48 1 
93 50 47 1 
94 50 51 1 
95 51 82 1 
96 51 83 1 
97 52 66 1 
98 52 47 1 
99 52 80 1 
100 52 81 1 
101 53 47 1 
102 53 78 1 
103 53 79 1 
104 54 53 1 
105 54 76 1 
106 54 77 1 
107 55 54 1 
108 56 62 1 
109 57 56 2 
110 57 75 1 
111 58 60 2 
112 58 59 1 
113 58 74 1 
114 59 73 1 
115 60 51 1 
116 60 57 1 
117 61 65 2 
118 61 56 1 
119 61 72 1 
120 62 59 2 
121 63 62 1 
122 63 71 1 
123 64 63 2 
124 65 64 1 
125 66 55 1 
126 66 67 1 
127 66 68 1 
128 69 65 1 
129 70 64 1 
@<TRIPOS>SUBSTRUCTURE
1 CKW::FUZI_1 1 RESIDUE 1 CKW::A CKW::FUZI 1
