@<TRIPOS>MOLECULE
COMMON-LISP:NIL
119 129 1 0 0
POLYMER
CHARGES


@<TRIPOS>ATOM
1 C.b -0.793076 1.49307 0.00467439 C.3 1 FUZI_1    0.000
2 C_28893 0.760 9.911 2.898 C.3 1 FUZI_1    0.000
3 C_28894 -0.084 8.649 2.647 C.3 1 FUZI_1    0.000
4 C_28892 2.207 9.417 2.782 C.3 1 FUZI_1    0.000
5 N 0.792 7.675 1.980 N.am 1 FUZI_1    0.000
6 O 4.379 7.707 1.960 O.2 1 FUZI_1    0.000
7 C.e 2.090 8.289 1.746 C.3 1 FUZI_1    0.000
8 O -0.677 6.013 1.830 O.2 1 FUZI_1    0.000
9 C_28904 1.218 4.797 -0.008 C.3 1 FUZI_1    0.000
10 C_28901 1.537 4.239 2.366 C.3 1 FUZI_1    0.000
11 C.d 1.616 5.426 1.353 C.3 1 FUZI_1    0.000
12 C_28918 6.199 4.384 -0.148 C.3 1 FUZI_1    0.000
13 C.c 1.172 2.998 1.531 C.3 1 FUZI_1    0.000
14 O -0.362 3.171 -1.688 O.2 1 FUZI_1    0.000
15 O 0.431 1.779 3.429 O.2 1 FUZI_1    0.000
16 N 0.632 3.486 0.274 N.am 1 FUZI_1    0.000
17 C_28912 -2.275 1.436 -0.460 C.3 1 FUZI_1    0.000
18 C_28909 -0.148 0.273 -0.709 C.3 1 FUZI_1    0.000
19 O -3.763 0.132 2.555 O.co2 1 FUZI_1    0.000
20 O -0.051 -2.441 -1.725 O.2 1 FUZI_1    0.000
21 C_28900 3.254 7.326 1.697 C.2 1 FUZI_1    0.000
22 C_28897 0.477 6.388 1.729 C.2 1 FUZI_1    0.000
23 N.d 2.990 6.039 1.330 N.am 1 FUZI_1    0.000
24 C.d2 4.104 5.079 1.086 C.3 1 FUZI_1    0.000
25 C_28917 4.409 5.630 -1.421 C.3 1 FUZI_1    0.000
26 C_28916 5.096 5.458 -0.050 C.3 1 FUZI_1    0.000
27 C_28908 -0.160 2.777 -0.555 C.2 1 FUZI_1    0.000
28 C_28905 0.292 1.990 2.239 C.2 1 FUZI_1    0.000
29 N.b -0.652 1.344 1.497 N.am 1 FUZI_1    0.000
30 C.b2 -1.458 0.260 2.123 C.3 1 FUZI_1    0.000
31 OH -2.708 1.740 3.470 O.co2 1 FUZI_1    0.000
32 C_28922 -2.738 0.743 2.776 C.2 1 FUZI_1    0.000
33 C_28929 -4.047 -1.557 -5.613 C.2 1 FUZI_1    0.000
34 C.a2 -1.116 0.018 -3.034 C.3 1 FUZI_1    0.000
35 C_28931 -3.342 0.074 -4.130 C.2 1 FUZI_1    0.000
36 C_28927 -1.950 -1.691 -4.630 C.2 1 FUZI_1    0.000
37 C_28926 -2.178 -0.559 -3.954 C.2 1 FUZI_1    0.000
38 C_28935 -4.973 -2.066 -6.433 C.2 1 FUZI_1    0.000
39 C_28930 -4.271 -0.420 -4.948 C.2 1 FUZI_1    0.000
40 C_28928 -2.873 -2.198 -5.454 C.2 1 FUZI_1    0.000
41 C_28932 -2.647 -3.337 -6.117 C.2 1 FUZI_1    0.000
42 C_28933 -3.576 -3.837 -6.932 C.2 1 FUZI_1    0.000
43 C_28934 -4.738 -3.203 -7.089 C.2 1 FUZI_1    0.000
44 C.a -1.262 -0.418 -1.543 C.3 1 FUZI_1    0.000
45 N -2.508 0.083 -0.971 N.am 1 FUZI_1    0.000
46 O -4.667 -0.015 -0.507 O.2 1 FUZI_1    0.000
47 C_28938 -3.584 -2.163 -0.799 C.3 1 FUZI_1    0.000
48 C_28936 -1.120 -1.928 -1.444 C.2 1 FUZI_1    0.000
49 C_28939 -3.640 -0.621 -0.759 C.2 1 FUZI_1    0.000
50 N.z -2.177 -2.677 -1.007 N.am 1 FUZI_1    0.000
51 C.z2 -1.943 -4.118 -0.726 C.3 1 FUZI_1    0.000
52 C_28975 -4.513 -2.578 -1.993 C.3 1 FUZI_1    0.000
53 C_28944 -4.202 -2.626 0.577 C.3 1 FUZI_1    0.000
54 C_28945 -4.951 -3.979 0.571 C.3 1 FUZI_1    0.000
55 NH -5.922 -4.013 -0.544 N.2 1 FUZI_1    0.000
56 C_28979 -1.379 -6.042 2.403 C.2 1 FUZI_1    0.000
57 C_28980 -1.768 -5.686 1.175 C.2 1 FUZI_1    0.000
58 C_28976 -0.760 -3.634 1.432 C.2 1 FUZI_1    0.000
59 C_28977 -0.366 -3.977 2.658 C.2 1 FUZI_1    0.000
60 C_28943 -1.470 -4.481 0.676 C.2 1 FUZI_1    0.000
61 C_28984 -1.686 -7.247 2.896 C.2 1 FUZI_1    0.000
62 C_28978 -0.671 -5.178 3.154 C.2 1 FUZI_1    0.000
63 C_28981 -0.282 -5.533 4.384 C.2 1 FUZI_1    0.000
64 C_28982 -0.593 -6.736 4.866 C.2 1 FUZI_1    0.000
65 C_28983 -1.294 -7.593 4.123 C.2 1 FUZI_1    0.000
66 C_28974 -5.243 -3.932 -1.856 C.3 1 FUZI_1    0.000
67 H_289741 -5.996 -4.009 -2.645 H 1 FUZI_1    0.000
68 H_289742 -4.554 -4.769 -1.974 H 1 FUZI_1    0.000
69 H_28983 -1.547 -8.574 4.518 H 1 FUZI_1    0.000
70 H_28982 -0.275 -7.019 5.866 H 1 FUZI_1    0.000
71 H_28981 0.290 -4.843 5.001 H 1 FUZI_1    0.000
72 H_28984 -2.258 -7.957 2.301 H 1 FUZI_1    0.000
73 H_28977 0.207 -3.265 3.250 H 1 FUZI_1    0.000
74 H_28976 -0.494 -2.649 1.063 H 1 FUZI_1    0.000
75 H_28980 -2.340 -6.385 0.568 H 1 FUZI_1    0.000
76 H_289451 -4.268 -4.823 0.488 H 1 FUZI_1    0.000
77 H_289452 -5.496 -4.086 1.512 H 1 FUZI_1    0.000
78 H_289441 -4.947 -1.909 0.924 H 1 FUZI_1    0.000
79 H_289442 -3.434 -2.631 1.352 H 1 FUZI_1    0.000
80 H_289751 -3.935 -2.596 -2.915 H 1 FUZI_1    0.000
81 H_289752 -5.294 -1.828 -2.141 H 1 FUZI_1    0.000
82 H.z21 -1.203 -4.499 -1.434 H 1 FUZI_1    0.000
83 H.z22 -2.841 -4.680 -0.955 H 1 FUZI_1    0.000
84 H_28934 -5.495 -3.612 -7.754 H 1 FUZI_1    0.000
85 H_28933 -3.387 -4.764 -7.468 H 1 FUZI_1    0.000
86 H_28932 -1.704 -3.866 -5.997 H 1 FUZI_1    0.000
87 H_28930 -5.212 0.112 -5.067 H 1 FUZI_1    0.000
88 H_28935 -5.926 -1.559 -6.570 H 1 FUZI_1    0.000
89 H_28927 -1.001 -2.207 -4.502 H 1 FUZI_1    0.000
90 H_28931 -3.542 1.001 -3.598 H 1 FUZI_1    0.000
91 H.a21 -0.128 -0.271 -3.400 H 1 FUZI_1    0.000
92 H.a22 -1.147 1.107 -3.105 H 1 FUZI_1    0.000
93 H.b21 -0.873 -0.236 2.902 H 1 FUZI_1    0.000
94 H.b22 -1.722 -0.506 1.393 H 1 FUZI_1    0.000
95 H_28916 5.586 6.401 0.197 H 1 FUZI_1    0.000
96 H_289171 5.134 5.959 -2.169 H 1 FUZI_1    0.000
97 H_289172 3.618 6.382 -1.371 H 1 FUZI_1    0.000
98 H_289173 3.978 4.687 -1.763 H 1 FUZI_1    0.000
99 H.d21 3.700 4.092 0.850 H 1 FUZI_1    0.000
100 H.d22 4.665 4.983 2.019 H 1 FUZI_1    0.000
101 H_289091 0.255 -0.422 0.032 H 1 FUZI_1    0.000
102 H_289092 0.700 0.567 -1.335 H 1 FUZI_1    0.000
103 H_289121 -2.959 1.679 0.356 H 1 FUZI_1    0.000
104 H_289122 -2.477 2.131 -1.278 H 1 FUZI_1    0.000
105 H.c 2.092 2.461 1.284 H 1 FUZI_1    0.000
106 H_289181 5.773 3.411 -0.405 H 1 FUZI_1    0.000
107 H_289182 6.727 4.288 0.803 H 1 FUZI_1    0.000
108 H_289183 6.930 4.653 -0.914 H 1 FUZI_1    0.000
109 H_289011 0.776 4.415 3.130 H 1 FUZI_1    0.000
110 H_289012 2.473 4.072 2.904 H 1 FUZI_1    0.000
111 H_289041 0.503 5.428 -0.544 H 1 FUZI_1    0.000
112 H_289042 2.086 4.638 -0.645 H 1 FUZI_1    0.000
113 H.e 2.044 8.739 0.750 H 1 FUZI_1    0.000
114 H_288921 2.891 10.207 2.462 H 1 FUZI_1    0.000
115 H_288922 2.542 9.016 3.742 H 1 FUZI_1    0.000
116 H_288941 -0.418 8.229 3.600 H 1 FUZI_1    0.000
117 H_288942 -0.950 8.878 2.020 H 1 FUZI_1    0.000
118 H_288931 0.553 10.359 3.873 H 1 FUZI_1    0.000
119 H_288932 0.558 10.649 2.118 H 1 FUZI_1    0.000
@<TRIPOS>BOND
1 1 29 1 
2 2 4 1 
3 2 118 1 
4 2 119 1 
5 3 2 1 
6 3 116 1 
7 3 117 1 
8 4 114 1 
9 4 115 1 
10 5 3 1 
11 7 5 1 
12 7 4 1 
13 7 113 1 
14 9 16 1 
15 9 111 1 
16 9 112 1 
17 10 11 1 
18 10 13 1 
19 10 109 1 
20 10 110 1 
21 11 22 1 
22 11 9 1 
23 12 26 1 
24 12 106 1 
25 12 107 1 
26 12 108 1 
27 13 105 1 
28 16 13 1 
29 17 45 1 
30 17 1 1 
31 17 103 1 
32 17 104 1 
33 18 1 1 
34 18 101 1 
35 18 102 1 
36 19 32 2 
37 21 23 1 
38 21 7 1 
39 21 6 2 
40 22 5 1 
41 22 8 2 
42 23 11 1 
43 23 24 1 
44 24 99 1 
45 24 100 1 
46 25 26 1 
47 25 96 1 
48 25 97 1 
49 25 98 1 
50 26 24 1 
51 26 95 1 
52 27 1 1 
53 27 16 1 
54 27 14 2 
55 28 13 1 
56 28 15 2 
57 29 28 1 
58 29 30 1 
59 30 93 1 
60 30 94 1 
61 31 32 1 
62 32 30 1 
63 33 40 2 
64 34 37 1 
65 34 91 1 
66 34 92 1 
67 35 39 2 
68 35 37 1 
69 35 90 1 
70 36 37 2 
71 36 89 1 
72 38 43 2 
73 38 33 1 
74 38 88 1 
75 39 33 1 
76 39 87 1 
77 40 36 1 
78 41 40 1 
79 41 86 1 
80 42 41 2 
81 42 85 1 
82 43 42 1 
83 43 84 1 
84 44 18 1 
85 44 34 1 
86 44 48 1 
87 45 44 1 
88 45 49 1 
89 46 49 2 
90 48 20 2 
91 49 47 1 
92 50 48 1 
93 50 47 1 
94 50 51 1 
95 51 82 1 
96 51 83 1 
97 52 66 1 
98 52 47 1 
99 52 80 1 
100 52 81 1 
101 53 47 1 
102 53 78 1 
103 53 79 1 
104 54 53 1 
105 54 76 1 
106 54 77 1 
107 55 54 1 
108 56 62 1 
109 57 56 2 
110 57 75 1 
111 58 60 2 
112 58 59 1 
113 58 74 1 
114 59 73 1 
115 60 51 1 
116 60 57 1 
117 61 65 2 
118 61 56 1 
119 61 72 1 
120 62 59 2 
121 63 62 1 
122 63 71 1 
123 64 63 2 
124 65 64 1 
125 66 55 1 
126 66 67 1 
127 66 68 1 
128 69 65 1 
129 70 64 1 
@<TRIPOS>SUBSTRUCTURE
1 CKW::FUZI_1 1 RESIDUE 1 CKW::A CKW::FUZI 1
