@<TRIPOS>MOLECULE
COMMON-LISP:NIL
119 129 1 0 0
POLYMER
CHARGES


@<TRIPOS>ATOM
1 C.b -0.525571 0.331903 1.81751 C.3 1 FUZI_1    0.000
2 C_28893 4.881 8.212 2.474 C.3 1 FUZI_1    0.000
3 C_28894 3.594 7.676 3.124 C.3 1 FUZI_1    0.000
4 C_28892 5.524 6.966 1.854 C.3 1 FUZI_1    0.000
5 N 3.299 6.384 2.486 N.am 1 FUZI_1    0.000
6 O 5.683 4.275 0.899 O.2 1 FUZI_1    0.000
7 C.e 4.302 6.118 1.468 C.3 1 FUZI_1    0.000
8 O 1.492 5.885 3.676 O.2 1 FUZI_1    0.000
9 C_28904 0.992 3.873 1.601 C.3 1 FUZI_1    0.000
10 C_28901 2.324 3.116 3.509 C.3 1 FUZI_1    0.000
11 C.d 2.357 4.100 2.297 C.3 1 FUZI_1    0.000
12 C_28918 2.346 2.493 -1.269 C.3 1 FUZI_1    0.000
13 C.c 1.061 2.244 3.328 C.3 1 FUZI_1    0.000
14 O -0.984 2.259 0.406 O.2 1 FUZI_1    0.000
15 O 2.067 0.366 4.381 O.2 1 FUZI_1    0.000
16 N 0.500 2.565 2.026 N.am 1 FUZI_1    0.000
17 C_28912 -1.902 0.201 2.490 C.3 1 FUZI_1    0.000
18 C_28909 -0.723 -0.546 0.543 C.3 1 FUZI_1    0.000
19 O 1.617 -3.275 1.627 O.co2 1 FUZI_1    0.000
20 O -1.862 0.023 -2.019 O.2 1 FUZI_1    0.000
21 C_28900 4.574 4.651 1.226 C.2 1 FUZI_1    0.000
22 C_28897 2.333 5.527 2.871 C.2 1 FUZI_1    0.000
23 N.d 3.528 3.790 1.387 N.am 1 FUZI_1    0.000
24 C.d2 3.671 2.359 0.962 C.3 1 FUZI_1    0.000
25 C_28917 4.867 2.493 -1.345 C.3 1 FUZI_1    0.000
26 C_28916 3.627 2.016 -0.559 C.3 1 FUZI_1    0.000
27 C_28908 -0.380 1.795 1.356 C.2 1 FUZI_1    0.000
28 C_28905 1.275 0.760 3.545 C.2 1 FUZI_1    0.000
29 N.b 0.565 -0.101 2.761 N.am 1 FUZI_1    0.000
30 C.b2 0.720 -1.563 2.964 C.3 1 FUZI_1    0.000
31 OH 2.822 -1.538 1.885 O.co2 1 FUZI_1    0.000
32 C_28922 1.810 -2.175 2.104 C.2 1 FUZI_1    0.000
33 C_28929 -2.557 -4.473 3.522 C.2 1 FUZI_1    0.000
34 C.a2 -2.783 -2.035 0.091 C.3 1 FUZI_1    0.000
35 C_28931 -3.606 -2.806 2.307 C.2 1 FUZI_1    0.000
36 C_28927 -1.729 -3.825 1.456 C.2 1 FUZI_1    0.000
37 C_28926 -2.695 -2.909 1.334 C.2 1 FUZI_1    0.000
38 C_28935 -2.475 -5.247 4.610 C.2 1 FUZI_1    0.000
39 C_28930 -3.536 -3.573 3.394 C.2 1 FUZI_1    0.000
40 C_28928 -1.647 -4.603 2.540 C.2 1 FUZI_1    0.000
41 C_28932 -0.670 -5.509 2.661 C.2 1 FUZI_1    0.000
42 C_28933 -0.594 -6.276 3.749 C.2 1 FUZI_1    0.000
43 C_28934 -1.495 -6.145 4.723 C.2 1 FUZI_1    0.000
44 C.a -2.261 -0.569 0.252 C.3 1 FUZI_1    0.000
45 N -2.882 0.101 1.400 N.am 1 FUZI_1    0.000
46 O -4.511 1.194 2.431 O.2 1 FUZI_1    0.000
47 C_28938 -4.693 1.107 0.023 C.3 1 FUZI_1    0.000
48 C_28936 -2.607 0.121 -1.061 C.2 1 FUZI_1    0.000
49 C_28939 -4.038 0.797 1.381 C.2 1 FUZI_1    0.000
50 N.z -3.781 0.816 -1.145 N.am 1 FUZI_1    0.000
51 C.z2 -4.237 1.318 -2.472 C.3 1 FUZI_1    0.000
52 C_28975 -5.076 2.632 0.090 C.3 1 FUZI_1    0.000
53 C_28944 -5.980 0.218 -0.026 C.3 1 FUZI_1    0.000
54 C_28945 -7.192 0.874 -0.731 C.3 1 FUZI_1    0.000
55 NH -7.524 2.221 -0.184 N.2 1 FUZI_1    0.000
56 C_28979 -3.451 -0.415 -5.671 C.2 1 FUZI_1    0.000
57 C_28980 -3.448 0.464 -4.663 C.2 1 FUZI_1    0.000
58 C_28976 -5.090 -0.736 -3.587 C.2 1 FUZI_1    0.000
59 C_28977 -5.104 -1.620 -4.585 C.2 1 FUZI_1    0.000
60 C_28943 -4.261 0.312 -3.612 C.2 1 FUZI_1    0.000
61 C_28984 -2.632 -0.261 -6.717 C.2 1 FUZI_1    0.000
62 C_28978 -4.288 -1.469 -5.631 C.2 1 FUZI_1    0.000
63 C_28981 -4.292 -2.350 -6.638 C.2 1 FUZI_1    0.000
64 C_28982 -3.472 -2.187 -7.677 C.2 1 FUZI_1    0.000
65 C_28983 -2.643 -1.144 -7.716 C.2 1 FUZI_1    0.000
66 C_28974 -6.489 2.865 0.669 C.3 1 FUZI_1    0.000
67 H_289741 -6.562 2.468 1.684 H 1 FUZI_1    0.000
68 H_289742 -6.688 3.939 0.706 H 1 FUZI_1    0.000
69 H_28983 -1.975 -1.013 -8.564 H 1 FUZI_1    0.000
70 H_28982 -3.480 -2.906 -8.493 H 1 FUZI_1    0.000
71 H_28981 -4.964 -3.206 -6.619 H 1 FUZI_1    0.000
72 H_28984 -1.950 0.586 -6.763 H 1 FUZI_1    0.000
73 H_28977 -5.789 -2.464 -4.537 H 1 FUZI_1    0.000
74 H_28976 -5.763 -0.880 -2.749 H 1 FUZI_1    0.000
75 H_28980 -2.770 1.314 -4.694 H 1 FUZI_1    0.000
76 H_289451 -7.014 0.959 -1.803 H 1 FUZI_1    0.000
77 H_289452 -8.062 0.227 -0.596 H 1 FUZI_1    0.000
78 H_289441 -6.309 -0.022 0.989 H 1 FUZI_1    0.000
79 H_289442 -5.759 -0.743 -0.492 H 1 FUZI_1    0.000
80 H_289751 -5.048 3.121 -0.882 H 1 FUZI_1    0.000
81 H_289752 -4.343 3.177 0.691 H 1 FUZI_1    0.000
82 H.z21 -3.578 2.149 -2.740 H 1 FUZI_1    0.000
83 H.z22 -5.240 1.733 -2.404 H 1 FUZI_1    0.000
84 H_28934 -1.432 -6.771 5.609 H 1 FUZI_1    0.000
85 H_28933 0.204 -7.009 3.842 H 1 FUZI_1    0.000
86 H_28932 0.073 -5.628 1.875 H 1 FUZI_1    0.000
87 H_28930 -4.286 -3.460 4.175 H 1 FUZI_1    0.000
88 H_28935 -3.205 -5.152 5.411 H 1 FUZI_1    0.000
89 H_28927 -0.993 -3.932 0.661 H 1 FUZI_1    0.000
90 H_28931 -4.415 -2.084 2.222 H 1 FUZI_1    0.000
91 H.a21 -2.243 -2.512 -0.731 H 1 FUZI_1    0.000
92 H.a22 -3.827 -2.007 -0.227 H 1 FUZI_1    0.000
93 H.b21 -0.218 -2.079 2.760 H 1 FUZI_1    0.000
94 H.b22 0.979 -1.775 4.005 H 1 FUZI_1    0.000
95 H_28916 3.630 0.925 -0.619 H 1 FUZI_1    0.000
96 H_289171 4.868 2.059 -2.347 H 1 FUZI_1    0.000
97 H_289172 5.786 2.181 -0.844 H 1 FUZI_1    0.000
98 H_289173 4.872 3.580 -1.454 H 1 FUZI_1    0.000
99 H.d21 2.888 1.756 1.419 H 1 FUZI_1    0.000
100 H.d22 4.614 1.982 1.369 H 1 FUZI_1    0.000
101 H_289091 -0.371 -1.564 0.672 H 1 FUZI_1    0.000
102 H_289092 -0.131 -0.148 -0.284 H 1 FUZI_1    0.000
103 H_289121 -1.958 -0.706 3.097 H 1 FUZI_1    0.000
104 H_289122 -2.099 1.068 3.126 H 1 FUZI_1    0.000
105 H.c 0.320 2.548 4.072 H 1 FUZI_1    0.000
106 H_289181 2.284 3.583 -1.276 H 1 FUZI_1    0.000
107 H_289182 1.462 2.083 -0.779 H 1 FUZI_1    0.000
108 H_289183 2.336 2.149 -2.306 H 1 FUZI_1    0.000
109 H_289011 2.264 3.631 4.470 H 1 FUZI_1    0.000
110 H_289012 3.233 2.511 3.554 H 1 FUZI_1    0.000
111 H_289041 0.256 4.616 1.920 H 1 FUZI_1    0.000
112 H_289042 1.081 3.935 0.518 H 1 FUZI_1    0.000
113 H.e 3.898 6.500 0.526 H 1 FUZI_1    0.000
114 H_288921 6.152 7.208 0.993 H 1 FUZI_1    0.000
115 H_288922 6.125 6.447 2.605 H 1 FUZI_1    0.000
116 H_288941 3.757 7.512 4.193 H 1 FUZI_1    0.000
117 H_288942 2.765 8.373 2.978 H 1 FUZI_1    0.000
118 H_288931 5.538 8.699 3.199 H 1 FUZI_1    0.000
119 H_288932 4.626 8.926 1.688 H 1 FUZI_1    0.000
@<TRIPOS>BOND
1 1 29 1 
2 2 4 1 
3 2 118 1 
4 2 119 1 
5 3 2 1 
6 3 116 1 
7 3 117 1 
8 4 114 1 
9 4 115 1 
10 5 3 1 
11 7 5 1 
12 7 4 1 
13 7 113 1 
14 9 16 1 
15 9 111 1 
16 9 112 1 
17 10 11 1 
18 10 13 1 
19 10 109 1 
20 10 110 1 
21 11 22 1 
22 11 9 1 
23 12 26 1 
24 12 106 1 
25 12 107 1 
26 12 108 1 
27 13 105 1 
28 16 13 1 
29 17 45 1 
30 17 1 1 
31 17 103 1 
32 17 104 1 
33 18 1 1 
34 18 101 1 
35 18 102 1 
36 19 32 2 
37 21 23 1 
38 21 7 1 
39 21 6 2 
40 22 5 1 
41 22 8 2 
42 23 11 1 
43 23 24 1 
44 24 99 1 
45 24 100 1 
46 25 26 1 
47 25 96 1 
48 25 97 1 
49 25 98 1 
50 26 24 1 
51 26 95 1 
52 27 1 1 
53 27 16 1 
54 27 14 2 
55 28 13 1 
56 28 15 2 
57 29 28 1 
58 29 30 1 
59 30 93 1 
60 30 94 1 
61 31 32 1 
62 32 30 1 
63 33 40 2 
64 34 37 1 
65 34 91 1 
66 34 92 1 
67 35 39 2 
68 35 37 1 
69 35 90 1 
70 36 37 2 
71 36 89 1 
72 38 43 2 
73 38 33 1 
74 38 88 1 
75 39 33 1 
76 39 87 1 
77 40 36 1 
78 41 40 1 
79 41 86 1 
80 42 41 2 
81 42 85 1 
82 43 42 1 
83 43 84 1 
84 44 18 1 
85 44 34 1 
86 44 48 1 
87 45 44 1 
88 45 49 1 
89 46 49 2 
90 48 20 2 
91 49 47 1 
92 50 48 1 
93 50 47 1 
94 50 51 1 
95 51 82 1 
96 51 83 1 
97 52 66 1 
98 52 47 1 
99 52 80 1 
100 52 81 1 
101 53 47 1 
102 53 78 1 
103 53 79 1 
104 54 53 1 
105 54 76 1 
106 54 77 1 
107 55 54 1 
108 56 62 1 
109 57 56 2 
110 57 75 1 
111 58 60 2 
112 58 59 1 
113 58 74 1 
114 59 73 1 
115 60 51 1 
116 60 57 1 
117 61 65 2 
118 61 56 1 
119 61 72 1 
120 62 59 2 
121 63 62 1 
122 63 71 1 
123 64 63 2 
124 65 64 1 
125 66 55 1 
126 66 67 1 
127 66 68 1 
128 69 65 1 
129 70 64 1 
@<TRIPOS>SUBSTRUCTURE
1 CKW::FUZI_1 1 RESIDUE 1 CKW::A CKW::FUZI 1
