@<TRIPOS>MOLECULE
COMMON-LISP:NIL
119 129 1 0 0
POLYMER
CHARGES


@<TRIPOS>ATOM
1 C.b -0.697903 -0.672129 0.255784 C.3 1 FUZI_1    0.000
2 C_28893 6.917 -6.034 -1.917 C.3 1 FUZI_1    0.000
3 C_28894 5.487 -6.328 -1.433 C.3 1 FUZI_1    0.000
4 C_28892 6.783 -4.711 -2.681 C.3 1 FUZI_1    0.000
5 N 4.768 -5.048 -1.440 N.am 1 FUZI_1    0.000
6 O 5.557 -2.202 -3.492 O.2 1 FUZI_1    0.000
7 C.e 5.649 -3.992 -1.932 C.3 1 FUZI_1    0.000
8 O 2.825 -5.769 -0.618 O.2 1 FUZI_1    0.000
9 C_28904 1.338 -3.500 -1.415 C.3 1 FUZI_1    0.000
10 C_28901 3.137 -2.564 -0.170 C.3 1 FUZI_1    0.000
11 C.d 2.898 -3.471 -1.405 C.3 1 FUZI_1    0.000
12 C_28918 3.688 -2.731 -5.810 C.3 1 FUZI_1    0.000
13 C.c 1.986 -1.548 -0.211 C.3 1 FUZI_1    0.000
14 O -1.308 -2.545 -1.175 O.2 1 FUZI_1    0.000
15 O 2.537 -0.684 1.937 O.2 1 FUZI_1    0.000
16 N 0.857 -2.272 -0.769 N.am 1 FUZI_1    0.000
17 C_28912 -2.153 -0.730 0.798 C.3 1 FUZI_1    0.000
18 C_28909 -0.725 0.596 -0.643 C.3 1 FUZI_1    0.000
19 O 1.165 2.144 1.830 O.co2 1 FUZI_1    0.000
20 O -1.036 3.467 -0.712 O.2 1 FUZI_1    0.000
21 C_28900 4.932 -2.932 -2.747 C.2 1 FUZI_1    0.000
22 C_28897 3.473 -4.862 -1.104 C.2 1 FUZI_1    0.000
23 N.d 3.575 -2.853 -2.608 N.am 1 FUZI_1    0.000
24 C.d2 2.780 -1.964 -3.508 C.3 1 FUZI_1    0.000
25 C_28917 1.598 -3.815 -4.901 C.3 1 FUZI_1    0.000
26 C_28916 2.439 -2.521 -4.926 C.3 1 FUZI_1    0.000
27 C_28908 -0.432 -1.901 -0.632 C.2 1 FUZI_1    0.000
28 C_28905 1.667 -0.876 1.108 C.2 1 FUZI_1    0.000
29 N.b 0.368 -0.507 1.314 N.am 1 FUZI_1    0.000
30 C.b2 0.010 0.211 2.571 C.3 1 FUZI_1    0.000
31 OH -0.335 2.401 3.317 O.co2 1 FUZI_1    0.000
32 C_28922 0.303 1.699 2.561 C.2 1 FUZI_1    0.000
33 C_28929 -4.410 -2.364 -2.974 C.2 1 FUZI_1    0.000
34 C.a2 -2.946 1.362 -1.661 C.3 1 FUZI_1    0.000
35 C_28931 -2.858 -0.653 -3.115 C.2 1 FUZI_1    0.000
36 C_28927 -4.569 -0.516 -1.582 C.2 1 FUZI_1    0.000
37 C_28926 -3.466 0.011 -2.126 C.2 1 FUZI_1    0.000
38 C_28935 -4.881 -3.547 -3.381 C.2 1 FUZI_1    0.000
39 C_28930 -3.321 -1.830 -3.534 C.2 1 FUZI_1    0.000
40 C_28928 -5.041 -1.698 -1.990 C.2 1 FUZI_1    0.000
41 C_28932 -6.134 -2.227 -1.429 C.2 1 FUZI_1    0.000
42 C_28933 -6.596 -3.409 -1.840 C.2 1 FUZI_1    0.000
43 C_28934 -5.970 -4.068 -2.815 C.2 1 FUZI_1    0.000
44 C.a -2.058 1.354 -0.371 C.3 1 FUZI_1    0.000
45 N -2.684 0.636 0.740 N.am 1 FUZI_1    0.000
46 O -4.140 0.420 2.395 O.2 1 FUZI_1    0.000
47 C_28938 -3.649 2.700 1.723 C.3 1 FUZI_1    0.000
48 C_28936 -1.824 2.823 -0.044 C.2 1 FUZI_1    0.000
49 C_28939 -3.526 1.166 1.653 C.2 1 FUZI_1    0.000
50 N.z -2.548 3.402 0.962 N.am 1 FUZI_1    0.000
51 C.z2 -2.433 4.874 1.188 C.3 1 FUZI_1    0.000
52 C_28975 -3.658 3.103 3.247 C.3 1 FUZI_1    0.000
53 C_28944 -5.032 3.053 1.082 C.3 1 FUZI_1    0.000
54 C_28945 -6.233 2.767 2.015 C.3 1 FUZI_1    0.000
55 NH -6.125 3.466 3.327 N.2 1 FUZI_1    0.000
56 C_28979 0.885 5.617 2.736 C.2 1 FUZI_1    0.000
57 C_28980 -0.056 5.191 1.887 C.2 1 FUZI_1    0.000
58 C_28976 -1.699 6.009 3.270 C.2 1 FUZI_1    0.000
59 C_28977 -0.772 6.442 4.125 C.2 1 FUZI_1    0.000
60 C_28943 -1.357 5.368 2.147 C.2 1 FUZI_1    0.000
61 C_28984 2.182 5.421 2.473 C.2 1 FUZI_1    0.000
62 C_28978 0.524 6.247 3.868 C.2 1 FUZI_1    0.000
63 C_28981 1.465 6.671 4.719 C.2 1 FUZI_1    0.000
64 C_28982 2.755 6.470 4.449 C.2 1 FUZI_1    0.000
65 C_28983 3.113 5.846 3.327 C.2 1 FUZI_1    0.000
66 C_28974 -4.801 4.068 3.635 C.3 1 FUZI_1    0.000
67 H_289741 -4.750 4.270 4.708 H 1 FUZI_1    0.000
68 H_289742 -4.712 5.018 3.106 H 1 FUZI_1    0.000
69 H_28983 4.166 5.683 3.108 H 1 FUZI_1    0.000
70 H_28982 3.516 6.816 5.145 H 1 FUZI_1    0.000
71 H_28981 1.186 7.182 5.639 H 1 FUZI_1    0.000
72 H_28984 2.489 4.912 1.561 H 1 FUZI_1    0.000
73 H_28977 -1.083 6.954 5.033 H 1 FUZI_1    0.000
74 H_28976 -2.746 6.182 3.503 H 1 FUZI_1    0.000
75 H_28980 0.248 4.689 0.975 H 1 FUZI_1    0.000
76 H_289451 -7.150 3.100 1.521 H 1 FUZI_1    0.000
77 H_289452 -6.320 1.694 2.195 H 1 FUZI_1    0.000
78 H_289441 -5.174 2.492 0.157 H 1 FUZI_1    0.000
79 H_289442 -5.071 4.107 0.802 H 1 FUZI_1    0.000
80 H_289751 -2.703 3.530 3.543 H 1 FUZI_1    0.000
81 H_289752 -3.762 2.232 3.895 H 1 FUZI_1    0.000
82 H.z21 -3.395 5.262 1.518 H 1 FUZI_1    0.000
83 H.z22 -2.260 5.354 0.221 H 1 FUZI_1    0.000
84 H_28934 -6.348 -5.031 -3.150 H 1 FUZI_1    0.000
85 H_28933 -7.484 -3.835 -1.380 H 1 FUZI_1    0.000
86 H_28932 -6.655 -1.701 -0.631 H 1 FUZI_1    0.000
87 H_28930 -2.801 -2.351 -4.336 H 1 FUZI_1    0.000
88 H_28935 -4.380 -4.096 -4.176 H 1 FUZI_1    0.000
89 H_28927 -5.082 0.025 -0.789 H 1 FUZI_1    0.000
90 H_28931 -1.970 -0.237 -3.586 H 1 FUZI_1    0.000
91 H.a21 -2.381 1.826 -2.474 H 1 FUZI_1    0.000
92 H.a22 -3.801 2.020 -1.505 H 1 FUZI_1    0.000
93 H.b21 0.590 -0.210 3.397 H 1 FUZI_1    0.000
94 H.b22 -1.037 0.097 2.843 H 1 FUZI_1    0.000
95 H_28916 1.834 -1.759 -5.422 H 1 FUZI_1    0.000
96 H_289171 2.084 -4.593 -4.307 H 1 FUZI_1    0.000
97 H_289172 1.458 -4.200 -5.914 H 1 FUZI_1    0.000
98 H_289173 0.605 -3.620 -4.493 H 1 FUZI_1    0.000
99 H.d21 3.341 -1.035 -3.640 H 1 FUZI_1    0.000
100 H.d22 1.845 -1.666 -3.037 H 1 FUZI_1    0.000
101 H_289091 -0.635 0.327 -1.698 H 1 FUZI_1    0.000
102 H_289092 0.141 1.226 -0.432 H 1 FUZI_1    0.000
103 H_289121 -2.797 -1.347 0.172 H 1 FUZI_1    0.000
104 H_289122 -2.196 -1.150 1.805 H 1 FUZI_1    0.000
105 H.c 2.238 -0.745 -0.909 H 1 FUZI_1    0.000
106 H_289181 4.303 -3.553 -5.436 H 1 FUZI_1    0.000
107 H_289182 4.292 -1.822 -5.846 H 1 FUZI_1    0.000
108 H_289183 3.392 -2.974 -6.833 H 1 FUZI_1    0.000
109 H_289011 4.112 -2.072 -0.180 H 1 FUZI_1    0.000
110 H_289012 3.062 -3.156 0.747 H 1 FUZI_1    0.000
111 H_289041 0.927 -3.591 -2.415 H 1 FUZI_1    0.000
112 H_289042 0.954 -4.330 -0.818 H 1 FUZI_1    0.000
113 H.e 6.064 -3.483 -1.057 H 1 FUZI_1    0.000
114 H_288921 7.711 -4.136 -2.681 H 1 FUZI_1    0.000
115 H_288922 6.484 -4.912 -3.714 H 1 FUZI_1    0.000
116 H_288941 4.992 -7.013 -2.126 H 1 FUZI_1    0.000
117 H_288942 5.497 -6.759 -0.428 H 1 FUZI_1    0.000
118 H_288931 7.314 -6.835 -2.544 H 1 FUZI_1    0.000
119 H_288932 7.574 -5.896 -1.055 H 1 FUZI_1    0.000
@<TRIPOS>BOND
1 1 29 1 
2 2 4 1 
3 2 118 1 
4 2 119 1 
5 3 2 1 
6 3 116 1 
7 3 117 1 
8 4 114 1 
9 4 115 1 
10 5 3 1 
11 7 5 1 
12 7 4 1 
13 7 113 1 
14 9 16 1 
15 9 111 1 
16 9 112 1 
17 10 11 1 
18 10 13 1 
19 10 109 1 
20 10 110 1 
21 11 22 1 
22 11 9 1 
23 12 26 1 
24 12 106 1 
25 12 107 1 
26 12 108 1 
27 13 105 1 
28 16 13 1 
29 17 45 1 
30 17 1 1 
31 17 103 1 
32 17 104 1 
33 18 1 1 
34 18 101 1 
35 18 102 1 
36 19 32 2 
37 21 23 1 
38 21 7 1 
39 21 6 2 
40 22 5 1 
41 22 8 2 
42 23 11 1 
43 23 24 1 
44 24 99 1 
45 24 100 1 
46 25 26 1 
47 25 96 1 
48 25 97 1 
49 25 98 1 
50 26 24 1 
51 26 95 1 
52 27 1 1 
53 27 16 1 
54 27 14 2 
55 28 13 1 
56 28 15 2 
57 29 28 1 
58 29 30 1 
59 30 93 1 
60 30 94 1 
61 31 32 1 
62 32 30 1 
63 33 40 2 
64 34 37 1 
65 34 91 1 
66 34 92 1 
67 35 39 2 
68 35 37 1 
69 35 90 1 
70 36 37 2 
71 36 89 1 
72 38 43 2 
73 38 33 1 
74 38 88 1 
75 39 33 1 
76 39 87 1 
77 40 36 1 
78 41 40 1 
79 41 86 1 
80 42 41 2 
81 42 85 1 
82 43 42 1 
83 43 84 1 
84 44 18 1 
85 44 34 1 
86 44 48 1 
87 45 44 1 
88 45 49 1 
89 46 49 2 
90 48 20 2 
91 49 47 1 
92 50 48 1 
93 50 47 1 
94 50 51 1 
95 51 82 1 
96 51 83 1 
97 52 66 1 
98 52 47 1 
99 52 80 1 
100 52 81 1 
101 53 47 1 
102 53 78 1 
103 53 79 1 
104 54 53 1 
105 54 76 1 
106 54 77 1 
107 55 54 1 
108 56 62 1 
109 57 56 2 
110 57 75 1 
111 58 60 2 
112 58 59 1 
113 58 74 1 
114 59 73 1 
115 60 51 1 
116 60 57 1 
117 61 65 2 
118 61 56 1 
119 61 72 1 
120 62 59 2 
121 63 62 1 
122 63 71 1 
123 64 63 2 
124 65 64 1 
125 66 55 1 
126 66 67 1 
127 66 68 1 
128 69 65 1 
129 70 64 1 
@<TRIPOS>SUBSTRUCTURE
1 CKW::FUZI_1 1 RESIDUE 1 CKW::A CKW::FUZI 1
