@<TRIPOS>MOLECULE
NIL
119 129 1 0 0
POLYMER
CHARGES


@<TRIPOS>ATOM
1 C.b -0.726254 1.41487 4.5896 C.3 1 FUZI_1    0.000
2 C_28893 4.430 1.548 4.591 C.3 1 FUZI_1    0.000
3 C_28894 -4.369 1.766 2.599 C.3 1 FUZI_1    0.000
4 C_28892 2.469 -0.651 -0.716 C.3 1 FUZI_1    0.000
5 N 1.149 -0.414 -2.187 N.am 1 FUZI_1    0.000
6 O 3.429 -1.170 -4.420 O.2 1 FUZI_1    0.000
7 C.e 3.772 -1.802 0.209 C.3 1 FUZI_1    0.000
8 O -1.833 1.521 0.272 O.2 1 FUZI_1    0.000
9 C_28904 4.449 -3.398 3.924 C.3 1 FUZI_1    0.000
10 C_28901 4.893 0.133 -3.162 C.3 1 FUZI_1    0.000
11 C.d -1.986 3.121 1.570 C.3 1 FUZI_1    0.000
12 C_28918 -4.874 -1.331 -0.319 C.3 1 FUZI_1    0.000
13 C.c 3.700 1.999 -2.236 C.3 1 FUZI_1    0.000
14 O -0.883 2.422 0.986 O.2 1 FUZI_1    0.000
15 O 4.254 1.272 -2.516 O.2 1 FUZI_1    0.000
16 N 4.791 -0.869 0.522 N.am 1 FUZI_1    0.000
17 C_28912 0.552 1.695 1.557 C.3 1 FUZI_1    0.000
18 C_28909 -2.803 -1.055 3.534 C.3 1 FUZI_1    0.000
19 O 2.962 -3.230 -3.075 O.co2 1 FUZI_1    0.000
20 O 0.321 3.224 2.420 O.2 1 FUZI_1    0.000
21 C_28900 3.418 -2.484 -4.203 C.2 1 FUZI_1    0.000
22 C_28897 1.084 -4.466 1.611 C.2 1 FUZI_1    0.000
23 N.d -4.377 -2.162 0.411 N.am 1 FUZI_1    0.000
24 C.d2 2.711 2.131 4.829 C.3 1 FUZI_1    0.000
25 C_28917 -0.954 3.782 -3.507 C.3 1 FUZI_1    0.000
26 C_28916 -4.391 -1.690 4.580 C.3 1 FUZI_1    0.000
27 C_28908 1.130 2.658 4.096 C.2 1 FUZI_1    0.000
28 C_28905 -1.427 1.370 3.528 C.2 1 FUZI_1    0.000
29 N.b 0.911 4.019 -1.304 N.am 1 FUZI_1    0.000
30 C.b2 1.335 2.329 0.622 C.3 1 FUZI_1    0.000
31 OH 2.852 -3.737 2.295 O.co2 1 FUZI_1    0.000
32 C_28922 0.667 4.357 1.274 C.2 1 FUZI_1    0.000
33 C_28929 1.109 2.368 -0.020 C.2 1 FUZI_1    0.000
34 C.a2 3.664 0.792 2.101 C.3 1 FUZI_1    0.000
35 C_28931 -2.692 1.546 2.755 C.2 1 FUZI_1    0.000
36 C_28927 3.350 -0.340 -3.825 C.2 1 FUZI_1    0.000
37 C_28926 1.607 -1.051 -2.631 C.2 1 FUZI_1    0.000
38 C_28935 -0.515 2.978 1.885 C.2 1 FUZI_1    0.000
39 C_28930 -0.025 4.937 -4.704 C.2 1 FUZI_1    0.000
40 C_28928 -4.608 0.846 -1.690 C.2 1 FUZI_1    0.000
41 C_28932 0.329 4.738 -1.117 C.2 1 FUZI_1    0.000
42 C_28933 -0.186 0.423 -0.544 C.2 1 FUZI_1    0.000
43 C_28934 -0.125 -1.161 4.892 C.2 1 FUZI_1    0.000
44 C.a 3.557 0.944 -2.667 C.3 1 FUZI_1    0.000
45 N 0.900 2.940 3.612 N.am 1 FUZI_1    0.000
46 O 2.910 -2.838 -4.997 O.2 1 FUZI_1    0.000
47 C_28938 -0.831 0.001 -0.693 C.3 1 FUZI_1    0.000
48 C_28936 -0.618 -0.072 0.467 C.2 1 FUZI_1    0.000
49 C_28939 -0.517 -0.445 -4.043 C.2 1 FUZI_1    0.000
50 N.z 1.611 2.961 1.874 N.am 1 FUZI_1    0.000
51 C.z2 -0.854 4.882 4.055 C.3 1 FUZI_1    0.000
52 C_28975 1.238 -4.080 4.062 C.3 1 FUZI_1    0.000
53 C_28944 0.069 1.962 -2.522 C.3 1 FUZI_1    0.000
54 C_28945 -3.730 -2.239 4.699 C.3 1 FUZI_1    0.000
55 NH 0.790 -0.124 3.801 N.2 1 FUZI_1    0.000
56 C_28979 -0.557 -4.717 -0.584 C.2 1 FUZI_1    0.000
57 C_28980 -0.415 -2.116 1.339 C.2 1 FUZI_1    0.000
58 C_28976 -4.169 -2.340 0.614 C.2 1 FUZI_1    0.000
59 C_28977 4.829 1.237 -2.799 C.2 1 FUZI_1    0.000
60 C_28943 1.400 -1.497 4.287 C.2 1 FUZI_1    0.000
61 C_28984 1.863 4.722 -2.055 C.2 1 FUZI_1    0.000
62 C_28978 4.238 -3.943 -4.155 C.2 1 FUZI_1    0.000
63 C_28981 -1.677 2.970 2.807 C.2 1 FUZI_1    0.000
64 C_28982 4.784 1.010 -1.127 C.2 1 FUZI_1    0.000
65 C_28983 -3.920 4.916 -3.317 C.2 1 FUZI_1    0.000
66 C_28974 3.407 -3.308 -4.413 C.3 1 FUZI_1    0.000
67 H_289741 -1.034 -1.585 4.456 H 1 FUZI_1    0.000
68 H_289742 -3.237 -1.010 2.868 H 1 FUZI_1    0.000
69 H_28983 -2.749 3.420 -4.139 H 1 FUZI_1    0.000
70 H_28982 1.816 -3.264 -3.551 H 1 FUZI_1    0.000
71 H_28981 0.943 2.625 -1.189 H 1 FUZI_1    0.000
72 H_28984 -2.891 0.070 0.573 H 1 FUZI_1    0.000
73 H_28977 -4.713 -4.547 -2.161 H 1 FUZI_1    0.000
74 H_28976 -2.126 -0.489 -1.513 H 1 FUZI_1    0.000
75 H_28980 3.866 1.738 -1.406 H 1 FUZI_1    0.000
76 H_289451 -2.285 0.020 -0.307 H 1 FUZI_1    0.000
77 H_289452 -4.053 2.928 -1.546 H 1 FUZI_1    0.000
78 H_289441 0.843 -2.229 1.676 H 1 FUZI_1    0.000
79 H_289442 0.463 -0.864 -2.857 H 1 FUZI_1    0.000
80 H_289751 -4.692 -3.298 0.574 H 1 FUZI_1    0.000
81 H_289752 0.282 0.530 2.248 H 1 FUZI_1    0.000
82 H.z21 1.452 3.129 0.655 H 1 FUZI_1    0.000
83 H.z22 2.829 -2.811 3.567 H 1 FUZI_1    0.000
84 H_28934 1.902 -0.366 4.433 H 1 FUZI_1    0.000
85 H_28933 -4.428 1.033 1.340 H 1 FUZI_1    0.000
86 H_28932 -2.707 2.287 -0.583 H 1 FUZI_1    0.000
87 H_28930 -3.762 -2.827 0.097 H 1 FUZI_1    0.000
88 H_28935 -1.763 0.275 4.570 H 1 FUZI_1    0.000
89 H_28927 -2.272 -3.775 -4.451 H 1 FUZI_1    0.000
90 H_28931 -1.816 3.236 0.797 H 1 FUZI_1    0.000
91 H.a21 -3.105 0.459 0.810 H 1 FUZI_1    0.000
92 H.a22 3.415 1.157 3.450 H 1 FUZI_1    0.000
93 H.b21 4.204 -3.856 0.134 H 1 FUZI_1    0.000
94 H.b22 2.962 -1.459 3.805 H 1 FUZI_1    0.000
95 H_28916 -2.578 2.392 -2.219 H 1 FUZI_1    0.000
96 H_289171 4.020 2.152 0.824 H 1 FUZI_1    0.000
97 H_289172 -1.110 0.318 -1.518 H 1 FUZI_1    0.000
98 H_289173 -0.385 2.577 -1.751 H 1 FUZI_1    0.000
99 H.d21 4.324 -4.788 -4.637 H 1 FUZI_1    0.000
100 H.d22 3.870 1.734 4.999 H 1 FUZI_1    0.000
101 H_289091 4.668 4.527 3.579 H 1 FUZI_1    0.000
102 H_289092 -4.559 0.770 4.701 H 1 FUZI_1    0.000
103 H_289121 -0.014 3.490 -0.760 H 1 FUZI_1    0.000
104 H_289122 -1.921 -4.304 -3.216 H 1 FUZI_1    0.000
105 H.c -3.697 4.289 0.497 H 1 FUZI_1    0.000
106 H_289181 -1.365 4.363 3.111 H 1 FUZI_1    0.000
107 H_289182 3.034 -4.149 4.102 H 1 FUZI_1    0.000
108 H_289183 -2.934 -4.610 -1.993 H 1 FUZI_1    0.000
109 H_289011 -3.906 -1.726 -4.220 H 1 FUZI_1    0.000
110 H_289012 -1.435 -0.224 2.102 H 1 FUZI_1    0.000
111 H_289041 4.704 -0.608 4.477 H 1 FUZI_1    0.000
112 H_289042 -2.023 -2.904 -3.097 H 1 FUZI_1    0.000
113 H.e 2.486 0.468 -1.963 H 1 FUZI_1    0.000
114 H_288921 -0.712 3.676 -0.323 H 1 FUZI_1    0.000
115 H_288922 3.678 -4.095 -0.164 H 1 FUZI_1    0.000
116 H_288941 -0.642 2.836 -2.029 H 1 FUZI_1    0.000
117 H_288942 2.730 1.000 3.678 H 1 FUZI_1    0.000
118 H_288931 0.226 -3.718 3.231 H 1 FUZI_1    0.000
119 H_288932 -0.216 4.375 -3.816 H 1 FUZI_1    0.000
@<TRIPOS>BOND
1 1 29 1 
2 2 4 1 
3 2 118 1 
4 2 119 1 
5 3 2 1 
6 3 116 1 
7 3 117 1 
8 4 114 1 
9 4 115 1 
10 5 3 1 
11 7 5 1 
12 7 4 1 
13 7 113 1 
14 9 16 1 
15 10 11 1 
16 10 13 1 
17 10 109 1 
18 10 110 1 
19 11 22 1 
20 11 9 1 
21 12 26 1 
22 16 13 1 
23 17 45 1 
24 17 1 1 
25 18 1 1 
26 19 32 2 
27 21 23 1 
28 21 7 1 
29 21 6 2 
30 22 5 1 
31 22 8 2 
32 23 11 1 
33 23 24 1 
34 25 26 1 
35 26 24 1 
36 27 1 1 
37 27 16 1 
38 27 14 2 
39 28 13 1 
40 28 15 2 
41 29 28 1 
42 29 30 1 
43 31 32 1 
44 32 30 1 
45 33 40 2 
46 34 37 1 
47 35 39 2 
48 35 37 1 
49 36 37 2 
50 38 43 2 
51 38 33 1 
52 39 33 1 
53 40 36 1 
54 41 40 1 
55 42 41 2 
56 43 42 1 
57 44 18 1 
58 44 34 1 
59 44 48 1 
60 45 44 1 
61 45 49 1 
62 46 49 2 
63 48 20 2 
64 49 47 1 
65 50 48 1 
66 50 47 1 
67 50 51 1 
68 52 66 1 
69 52 47 1 
70 53 47 1 
71 54 53 1 
72 55 54 1 
73 56 62 1 
74 57 56 2 
75 57 60 1 
76 57 75 1 
77 58 60 2 
78 59 58 1 
79 59 73 1 
80 60 51 1 
81 61 65 2 
82 61 56 1 
83 61 72 1 
84 62 59 2 
85 63 62 1 
86 63 71 1 
87 64 63 2 
88 65 64 1 
89 66 55 1 
90 67 66 1 
91 68 66 1 
92 69 65 1 
93 70 64 1 
94 74 58 1 
95 76 54 1 
96 77 54 1 
97 78 53 1 
98 79 53 1 
99 80 52 1 
100 81 52 1 
101 82 51 1 
102 83 51 1 
103 84 43 1 
104 85 42 1 
105 86 41 1 
106 87 39 1 
107 88 38 1 
108 89 36 1 
109 90 35 1 
110 91 34 1 
111 92 34 1 
112 93 30 1 
113 94 30 1 
114 95 26 1 
115 96 25 1 
116 97 25 1 
117 98 25 1 
118 99 24 1 
119 100 24 1 
120 101 18 1 
121 102 18 1 
122 103 17 1 
123 104 17 1 
124 105 13 1 
125 106 12 1 
126 107 12 1 
127 108 12 1 
128 111 9 1 
129 112 9 1 
@<TRIPOS>SUBSTRUCTURE
1 FUZI_1 1 RESIDUE 1 A FUZI 1
