@<TRIPOS>MOLECULE
COMMON-LISP:NIL
119 129 1 0 0
POLYMER
CHARGES


@<TRIPOS>ATOM
1 C.b 0.412151 1.15617 -0.159723 C.3 1 FUZI_1    0.000
2 C_28893 -0.939 7.012 -6.746 C.3 1 FUZI_1    0.000
3 C_28894 0.019 6.846 -5.557 C.3 1 FUZI_1    0.000
4 C_28892 -2.330 6.901 -6.112 C.3 1 FUZI_1    0.000
5 N -0.727 6.134 -4.511 N.am 1 FUZI_1    0.000
6 O -4.231 6.442 -4.024 O.2 1 FUZI_1    0.000
7 C.e -2.103 5.923 -4.945 C.3 1 FUZI_1    0.000
8 O 0.920 5.964 -3.024 O.2 1 FUZI_1    0.000
9 C_28904 -1.273 3.641 -2.591 C.3 1 FUZI_1    0.000
10 C_28901 -0.697 5.234 -0.874 C.3 1 FUZI_1    0.000
11 C.d -1.275 5.169 -2.322 C.3 1 FUZI_1    0.000
12 C_28918 -5.233 4.162 -2.016 C.3 1 FUZI_1    0.000
13 C.c 0.217 4.002 -0.767 C.3 1 FUZI_1    0.000
14 O -0.712 0.901 -2.286 O.2 1 FUZI_1    0.000
15 O 0.651 4.384 1.534 O.2 1 FUZI_1    0.000
16 N -0.411 2.990 -1.597 N.am 1 FUZI_1    0.000
17 C_28912 1.757 0.518 -0.579 C.3 1 FUZI_1    0.000
18 C_28909 -0.402 -0.054 0.401 C.3 1 FUZI_1    0.000
19 O 3.430 2.098 1.904 O.co2 1 FUZI_1    0.000
20 O -0.735 -2.520 1.917 O.2 1 FUZI_1    0.000
21 C_28900 -3.102 6.043 -3.810 C.2 1 FUZI_1    0.000
22 C_28897 -0.252 5.780 -3.298 C.2 1 FUZI_1    0.000
23 N.d -2.661 5.725 -2.554 N.am 1 FUZI_1    0.000
24 C.d2 -3.535 6.016 -1.377 C.3 1 FUZI_1    0.000
25 C_28917 -3.811 3.868 0.068 C.3 1 FUZI_1    0.000
26 C_28916 -4.488 4.888 -0.874 C.3 1 FUZI_1    0.000
27 C_28908 -0.274 1.658 -1.440 C.2 1 FUZI_1    0.000
28 C_28905 0.520 3.560 0.648 C.2 1 FUZI_1    0.000
29 N.b 0.638 2.222 0.882 N.am 1 FUZI_1    0.000
30 C.b2 1.120 1.748 2.210 C.3 1 FUZI_1    0.000
31 OH 2.541 2.957 3.640 O.co2 1 FUZI_1    0.000
32 C_28922 2.470 2.307 2.617 C.2 1 FUZI_1    0.000
33 C_28929 2.667 -5.474 -1.539 C.2 1 FUZI_1    0.000
34 C.a2 0.149 -2.162 -0.897 C.3 1 FUZI_1    0.000
35 C_28931 0.772 -4.546 -0.586 C.2 1 FUZI_1    0.000
36 C_28927 2.159 -3.237 -1.876 C.2 1 FUZI_1    0.000
37 C_28926 1.063 -3.355 -1.118 C.2 1 FUZI_1    0.000
38 C_28935 3.476 -6.519 -1.746 C.2 1 FUZI_1    0.000
39 C_28930 1.566 -5.597 -0.792 C.2 1 FUZI_1    0.000
40 C_28928 2.966 -4.282 -2.087 C.2 1 FUZI_1    0.000
41 C_28932 4.069 -4.154 -2.833 C.2 1 FUZI_1    0.000
42 C_28933 4.869 -5.201 -3.033 C.2 1 FUZI_1    0.000
43 C_28934 4.574 -6.382 -2.490 C.2 1 FUZI_1    0.000
44 C.a 0.536 -1.292 0.341 C.3 1 FUZI_1    0.000
45 N 1.876 -0.733 0.176 N.am 1 FUZI_1    0.000
46 O 4.070 -0.681 0.416 O.2 1 FUZI_1    0.000
47 C_28938 2.900 -2.104 1.992 C.3 1 FUZI_1    0.000
48 C_28936 0.375 -2.131 1.596 C.2 1 FUZI_1    0.000
49 C_28939 3.008 -1.136 0.796 C.2 1 FUZI_1    0.000
50 N.z 1.473 -2.435 2.346 N.am 1 FUZI_1    0.000
51 C.z2 1.282 -3.265 3.568 C.3 1 FUZI_1    0.000
52 C_28975 3.621 -1.400 3.202 C.3 1 FUZI_1    0.000
53 C_28944 3.655 -3.422 1.615 C.3 1 FUZI_1    0.000
54 C_28945 5.194 -3.297 1.587 C.3 1 FUZI_1    0.000
55 NH 5.676 -2.756 2.879 N.2 1 FUZI_1    0.000
56 C_28979 -1.041 -2.868 6.442 C.2 1 FUZI_1    0.000
57 C_28980 -0.308 -3.395 5.455 C.2 1 FUZI_1    0.000
58 C_28976 0.501 -1.309 4.920 C.2 1 FUZI_1    0.000
59 C_28977 -0.225 -0.771 5.899 C.2 1 FUZI_1    0.000
60 C_28943 0.468 -2.626 4.684 C.2 1 FUZI_1    0.000
61 C_28984 -1.816 -3.644 7.208 C.2 1 FUZI_1    0.000
62 C_28978 -1.000 -1.542 6.666 C.2 1 FUZI_1    0.000
63 C_28981 -1.733 -1.013 7.652 C.2 1 FUZI_1    0.000
64 C_28982 -2.503 -1.795 8.411 C.2 1 FUZI_1    0.000
65 C_28983 -2.544 -3.108 8.189 C.2 1 FUZI_1    0.000
66 C_28974 5.166 -1.387 3.128 C.3 1 FUZI_1    0.000
67 H_289741 5.521 -0.715 2.344 H 1 FUZI_1    0.000
68 H_289742 5.566 -1.031 4.080 H 1 FUZI_1    0.000
69 H_28983 -3.172 -3.744 8.809 H 1 FUZI_1    0.000
70 H_28982 -3.097 -1.360 9.211 H 1 FUZI_1    0.000
71 H_28981 -1.709 0.058 7.844 H 1 FUZI_1    0.000
72 H_28984 -1.860 -4.718 7.039 H 1 FUZI_1    0.000
73 H_28977 -0.179 0.304 6.066 H 1 FUZI_1    0.000
74 H_28976 1.118 -0.655 4.312 H 1 FUZI_1    0.000
75 H_28980 -0.342 -4.468 5.273 H 1 FUZI_1    0.000
76 H_289451 5.633 -4.286 1.431 H 1 FUZI_1    0.000
77 H_289452 5.519 -2.649 0.770 H 1 FUZI_1    0.000
78 H_289441 3.316 -3.771 0.642 H 1 FUZI_1    0.000
79 H_289442 3.417 -4.221 2.319 H 1 FUZI_1    0.000
80 H_289751 3.379 -1.879 4.149 H 1 FUZI_1    0.000
81 H_289752 3.263 -0.373 3.293 H 1 FUZI_1    0.000
82 H.z21 2.237 -3.588 3.983 H 1 FUZI_1    0.000
83 H.z22 0.777 -4.182 3.249 H 1 FUZI_1    0.000
84 H_28934 5.228 -7.235 -2.655 H 1 FUZI_1    0.000
85 H_28933 5.765 -5.092 -3.640 H 1 FUZI_1    0.000
86 H_28932 4.323 -3.196 -3.281 H 1 FUZI_1    0.000
87 H_28930 1.309 -6.554 -0.342 H 1 FUZI_1    0.000
88 H_28935 3.247 -7.489 -1.308 H 1 FUZI_1    0.000
89 H_28927 2.399 -2.272 -2.320 H 1 FUZI_1    0.000
90 H_28931 -0.119 -4.667 0.025 H 1 FUZI_1    0.000
91 H.a21 0.156 -1.545 -1.798 H 1 FUZI_1    0.000
92 H.a22 -0.881 -2.511 -0.789 H 1 FUZI_1    0.000
93 H.b21 1.224 0.665 2.251 H 1 FUZI_1    0.000
94 H.b22 0.392 2.046 2.971 H 1 FUZI_1    0.000
95 H_28916 -5.251 5.385 -0.271 H 1 FUZI_1    0.000
96 H_289171 -3.359 4.375 0.923 H 1 FUZI_1    0.000
97 H_289172 -3.043 3.289 -0.442 H 1 FUZI_1    0.000
98 H_289173 -4.551 3.166 0.458 H 1 FUZI_1    0.000
99 H.d21 -4.181 6.853 -1.657 H 1 FUZI_1    0.000
100 H.d22 -2.953 6.412 -0.545 H 1 FUZI_1    0.000
101 H_289091 -1.325 -0.234 -0.156 H 1 FUZI_1    0.000
102 H_289092 -0.734 0.136 1.424 H 1 FUZI_1    0.000
103 H_289121 1.764 0.273 -1.644 H 1 FUZI_1    0.000
104 H_289122 2.589 1.195 -0.372 H 1 FUZI_1    0.000
105 H.c 1.188 4.225 -1.216 H 1 FUZI_1    0.000
106 H_289181 -4.539 3.641 -2.678 H 1 FUZI_1    0.000
107 H_289182 -5.814 4.872 -2.608 H 1 FUZI_1    0.000
108 H_289183 -5.928 3.425 -1.609 H 1 FUZI_1    0.000
109 H_289011 -1.457 5.117 -0.109 H 1 FUZI_1    0.000
110 H_289012 -0.164 6.167 -0.670 H 1 FUZI_1    0.000
111 H_289041 -2.280 3.232 -2.495 H 1 FUZI_1    0.000
112 H_289042 -0.907 3.416 -3.597 H 1 FUZI_1    0.000
113 H.e -2.174 4.897 -5.317 H 1 FUZI_1    0.000
114 H_288921 -2.636 7.880 -5.733 H 1 FUZI_1    0.000
115 H_288922 -3.081 6.539 -6.818 H 1 FUZI_1    0.000
116 H_288941 0.908 6.281 -5.849 H 1 FUZI_1    0.000
117 H_288942 0.312 7.827 -5.173 H 1 FUZI_1    0.000
118 H_288931 -0.791 6.193 -7.454 H 1 FUZI_1    0.000
119 H_288932 -0.795 7.962 -7.265 H 1 FUZI_1    0.000
@<TRIPOS>BOND
1 1 29 1 
2 2 4 1 
3 2 118 1 
4 2 119 1 
5 3 2 1 
6 3 116 1 
7 3 117 1 
8 4 114 1 
9 4 115 1 
10 5 3 1 
11 7 5 1 
12 7 4 1 
13 7 113 1 
14 9 16 1 
15 9 111 1 
16 9 112 1 
17 10 11 1 
18 10 13 1 
19 10 109 1 
20 10 110 1 
21 11 22 1 
22 11 9 1 
23 12 26 1 
24 12 106 1 
25 12 107 1 
26 12 108 1 
27 13 105 1 
28 16 13 1 
29 17 45 1 
30 17 1 1 
31 17 103 1 
32 17 104 1 
33 18 1 1 
34 18 101 1 
35 18 102 1 
36 19 32 2 
37 21 23 1 
38 21 7 1 
39 21 6 2 
40 22 5 1 
41 22 8 2 
42 23 11 1 
43 23 24 1 
44 24 99 1 
45 24 100 1 
46 25 26 1 
47 25 96 1 
48 25 97 1 
49 25 98 1 
50 26 24 1 
51 26 95 1 
52 27 1 1 
53 27 16 1 
54 27 14 2 
55 28 13 1 
56 28 15 2 
57 29 28 1 
58 29 30 1 
59 30 93 1 
60 30 94 1 
61 31 32 1 
62 32 30 1 
63 33 40 2 
64 34 37 1 
65 34 91 1 
66 34 92 1 
67 35 39 2 
68 35 37 1 
69 35 90 1 
70 36 37 2 
71 36 89 1 
72 38 43 2 
73 38 33 1 
74 38 88 1 
75 39 33 1 
76 39 87 1 
77 40 36 1 
78 41 40 1 
79 41 86 1 
80 42 41 2 
81 42 85 1 
82 43 42 1 
83 43 84 1 
84 44 18 1 
85 44 34 1 
86 44 48 1 
87 45 44 1 
88 45 49 1 
89 46 49 2 
90 48 20 2 
91 49 47 1 
92 50 48 1 
93 50 47 1 
94 50 51 1 
95 51 82 1 
96 51 83 1 
97 52 66 1 
98 52 47 1 
99 52 80 1 
100 52 81 1 
101 53 47 1 
102 53 78 1 
103 53 79 1 
104 54 53 1 
105 54 76 1 
106 54 77 1 
107 55 54 1 
108 56 62 1 
109 57 56 2 
110 57 75 1 
111 58 60 2 
112 58 59 1 
113 58 74 1 
114 59 73 1 
115 60 51 1 
116 60 57 1 
117 61 65 2 
118 61 56 1 
119 61 72 1 
120 62 59 2 
121 63 62 1 
122 63 71 1 
123 64 63 2 
124 65 64 1 
125 66 55 1 
126 66 67 1 
127 66 68 1 
128 69 65 1 
129 70 64 1 
@<TRIPOS>SUBSTRUCTURE
1 CKW::FUZI_1 1 RESIDUE 1 CKW::A CKW::FUZI 1
