@<TRIPOS>MOLECULE
COMMON-LISP:NIL
119 129 1 0 0
POLYMER
CHARGES


@<TRIPOS>ATOM
1 C.b 0.0737174 -0.894636 0.471367 C.3 1 FUZI_1    0.000
2 C_28893 -4.940 -7.332 2.241 C.3 1 FUZI_1    0.000
3 C_28894 -3.802 -6.317 2.443 C.3 1 FUZI_1    0.000
4 C_28892 -5.936 -6.594 1.338 C.3 1 FUZI_1    0.000
5 N -4.343 -4.993 2.100 N.am 1 FUZI_1    0.000
6 O -7.222 -4.351 0.082 O.2 1 FUZI_1    0.000
7 C.e -5.753 -5.134 1.775 C.3 1 FUZI_1    0.000
8 O -2.444 -3.862 2.298 O.2 1 FUZI_1    0.000
9 C_28904 -3.412 -2.457 -0.063 C.3 1 FUZI_1    0.000
10 C_28901 -3.934 -1.413 2.066 C.3 1 FUZI_1    0.000
11 C.d -4.258 -2.674 1.219 C.3 1 FUZI_1    0.000
12 C_28918 -8.865 -1.957 0.808 C.3 1 FUZI_1    0.000
13 C.c -2.631 -0.820 1.480 C.3 1 FUZI_1    0.000
14 O -0.909 -2.184 -1.338 O.2 1 FUZI_1    0.000
15 O -1.690 -0.456 3.637 O.2 1 FUZI_1    0.000
16 N -2.275 -1.618 0.317 N.am 1 FUZI_1    0.000
17 C_28912 1.402 -1.647 0.190 C.3 1 FUZI_1    0.000
18 C_28909 0.313 0.485 -0.195 C.3 1 FUZI_1    0.000
19 O 0.285 1.842 3.063 O.co2 1 FUZI_1    0.000
20 O 1.856 2.859 0.217 O.2 1 FUZI_1    0.000
21 C_28900 -6.294 -4.090 0.824 C.2 1 FUZI_1    0.000
22 C_28897 -3.605 -3.876 1.930 C.2 1 FUZI_1    0.000
23 N.d -5.710 -2.860 0.862 N.am 1 FUZI_1    0.000
24 C.d2 -6.361 -1.702 0.175 C.3 1 FUZI_1    0.000
25 C_28917 -7.357 -0.619 2.326 C.3 1 FUZI_1    0.000
26 C_28916 -7.607 -1.064 0.868 C.3 1 FUZI_1    0.000
27 C_28908 -1.065 -1.611 -0.276 C.2 1 FUZI_1    0.000
28 C_28905 -1.482 -0.649 2.454 C.2 1 FUZI_1    0.000
29 N.b -0.217 -0.713 1.944 N.am 1 FUZI_1    0.000
30 C.b2 0.937 -0.428 2.847 C.3 1 FUZI_1    0.000
31 OH 2.347 1.390 3.312 O.co2 1 FUZI_1    0.000
32 C_28922 1.204 1.048 3.093 C.2 1 FUZI_1    0.000
33 C_28929 0.903 -2.526 -4.450 C.2 1 FUZI_1    0.000
34 C.a2 2.038 0.761 -2.070 C.3 1 FUZI_1    0.000
35 C_28931 0.452 -0.435 -3.566 C.2 1 FUZI_1    0.000
36 C_28927 2.443 -1.476 -3.070 C.2 1 FUZI_1    0.000
37 C_28926 1.623 -0.430 -2.921 C.2 1 FUZI_1    0.000
38 C_28935 0.550 -3.577 -5.198 C.2 1 FUZI_1    0.000
39 C_28930 0.091 -1.473 -4.321 C.2 1 FUZI_1    0.000
40 C_28928 2.092 -2.526 -3.819 C.2 1 FUZI_1    0.000
41 C_28932 2.909 -3.577 -3.949 C.2 1 FUZI_1    0.000
42 C_28933 2.549 -4.621 -4.697 C.2 1 FUZI_1    0.000
43 C_28934 1.371 -4.621 -5.320 C.2 1 FUZI_1    0.000
44 C.a 1.834 0.596 -0.528 C.3 1 FUZI_1    0.000
45 N 2.442 -0.636 -0.026 N.am 1 FUZI_1    0.000
46 O 4.137 -1.914 0.583 O.2 1 FUZI_1    0.000
47 C_28938 4.607 0.465 0.513 C.3 1 FUZI_1    0.000
48 C_28936 2.484 1.823 0.092 C.2 1 FUZI_1    0.000
49 C_28939 3.731 -0.792 0.346 C.2 1 FUZI_1    0.000
50 N.z 3.799 1.739 0.457 N.am 1 FUZI_1    0.000
51 C.z2 4.547 2.989 0.776 C.3 1 FUZI_1    0.000
52 C_28975 5.664 0.458 -0.640 C.3 1 FUZI_1    0.000
53 C_28944 5.319 0.329 1.913 C.3 1 FUZI_1    0.000
54 C_28945 6.496 -0.678 1.959 C.3 1 FUZI_1    0.000
55 NH 7.431 -0.431 0.838 N.2 1 FUZI_1    0.000
56 C_28979 3.914 6.372 -0.638 C.2 1 FUZI_1    0.000
57 C_28980 4.059 5.355 0.217 C.2 1 FUZI_1    0.000
58 C_28976 4.594 3.946 -1.522 C.2 1 FUZI_1    0.000
59 C_28977 4.453 4.952 -2.386 C.2 1 FUZI_1    0.000
60 C_28943 4.397 4.135 -0.213 C.2 1 FUZI_1    0.000
61 C_28984 3.573 7.590 -0.202 C.2 1 FUZI_1    0.000
62 C_28978 4.113 6.169 -1.954 C.2 1 FUZI_1    0.000
63 C_28981 3.968 7.185 -2.811 C.2 1 FUZI_1    0.000
64 C_28982 3.628 8.396 -2.367 C.2 1 FUZI_1    0.000
65 C_28983 3.431 8.598 -1.064 C.2 1 FUZI_1    0.000
66 C_28974 6.769 -0.607 -0.476 C.3 1 FUZI_1    0.000
67 H_289741 6.354 -1.615 -0.551 H 1 FUZI_1    0.000
68 H_289742 7.513 -0.482 -1.267 H 1 FUZI_1    0.000
69 H_28983 3.153 9.585 -0.703 H 1 FUZI_1    0.000
70 H_28982 3.512 9.219 -3.068 H 1 FUZI_1    0.000
71 H_28981 4.126 7.035 -3.877 H 1 FUZI_1    0.000
72 H_28984 3.409 7.770 0.858 H 1 FUZI_1    0.000
73 H_28977 4.617 4.769 -3.446 H 1 FUZI_1    0.000
74 H_28976 4.867 2.964 -1.899 H 1 FUZI_1    0.000
75 H_28980 3.896 5.518 1.281 H 1 FUZI_1    0.000
76 H_289451 7.035 -0.553 2.901 H 1 FUZI_1    0.000
77 H_289452 6.137 -1.708 1.914 H 1 FUZI_1    0.000
78 H_289441 4.585 0.044 2.670 H 1 FUZI_1    0.000
79 H_289442 5.733 1.278 2.251 H 1 FUZI_1    0.000
80 H_289751 6.168 1.422 -0.706 H 1 FUZI_1    0.000
81 H_289752 5.168 0.305 -1.600 H 1 FUZI_1    0.000
82 H.z21 5.616 2.789 0.850 H 1 FUZI_1    0.000
83 H.z22 4.215 3.317 1.765 H 1 FUZI_1    0.000
84 H_28934 1.079 -5.472 -5.930 H 1 FUZI_1    0.000
85 H_28933 3.217 -5.473 -4.798 H 1 FUZI_1    0.000
86 H_28932 3.873 -3.591 -3.445 H 1 FUZI_1    0.000
87 H_28930 -0.871 -1.453 -4.828 H 1 FUZI_1    0.000
88 H_28935 -0.409 -3.590 -5.713 H 1 FUZI_1    0.000
89 H_28927 3.407 -1.475 -2.565 H 1 FUZI_1    0.000
90 H_28931 -0.225 0.412 -3.476 H 1 FUZI_1    0.000
91 H.a21 3.089 0.972 -2.272 H 1 FUZI_1    0.000
92 H.a22 1.499 1.653 -2.404 H 1 FUZI_1    0.000
93 H.b21 1.867 -0.868 2.493 H 1 FUZI_1    0.000
94 H.b22 0.740 -0.872 3.826 H 1 FUZI_1    0.000
95 H_28916 -7.848 -0.164 0.297 H 1 FUZI_1    0.000
96 H_289171 -8.284 -0.263 2.780 H 1 FUZI_1    0.000
97 H_289172 -6.647 0.208 2.361 H 1 FUZI_1    0.000
98 H_289173 -6.978 -1.444 2.933 H 1 FUZI_1    0.000
99 H.d21 -6.651 -2.022 -0.829 H 1 FUZI_1    0.000
100 H.d22 -5.631 -0.902 0.036 H 1 FUZI_1    0.000
101 H_289091 -0.026 1.284 0.466 H 1 FUZI_1    0.000
102 H_289092 -0.290 0.587 -1.098 H 1 FUZI_1    0.000
103 H_289121 1.655 -2.318 1.015 H 1 FUZI_1    0.000
104 H_289122 1.351 -2.252 -0.716 H 1 FUZI_1    0.000
105 H.c -2.847 0.188 1.114 H 1 FUZI_1    0.000
106 H_289181 -9.039 -2.315 -0.209 H 1 FUZI_1    0.000
107 H_289182 -9.746 -1.390 1.117 H 1 FUZI_1    0.000
108 H_289183 -8.773 -2.815 1.477 H 1 FUZI_1    0.000
109 H_289011 -3.854 -1.659 3.128 H 1 FUZI_1    0.000
110 H_289012 -4.697 -0.648 1.977 H 1 FUZI_1    0.000
111 H_289041 -3.069 -3.414 -0.469 H 1 FUZI_1    0.000
112 H_289042 -3.972 -1.930 -0.839 H 1 FUZI_1    0.000
113 H.e -6.301 -4.983 2.710 H 1 FUZI_1    0.000
114 H_288921 -5.648 -6.715 0.290 H 1 FUZI_1    0.000
115 H_288922 -6.961 -6.946 1.475 H 1 FUZI_1    0.000
116 H_288941 -3.447 -6.329 3.477 H 1 FUZI_1    0.000
117 H_288942 -2.975 -6.547 1.765 H 1 FUZI_1    0.000
118 H_288931 -5.409 -7.554 3.203 H 1 FUZI_1    0.000
119 H_288932 -4.588 -8.264 1.793 H 1 FUZI_1    0.000
@<TRIPOS>BOND
1 1 29 1 
2 2 4 1 
3 2 118 1 
4 2 119 1 
5 3 2 1 
6 3 116 1 
7 3 117 1 
8 4 114 1 
9 4 115 1 
10 5 3 1 
11 7 5 1 
12 7 4 1 
13 7 113 1 
14 9 16 1 
15 9 111 1 
16 9 112 1 
17 10 11 1 
18 10 13 1 
19 10 109 1 
20 10 110 1 
21 11 22 1 
22 11 9 1 
23 12 26 1 
24 12 106 1 
25 12 107 1 
26 12 108 1 
27 13 105 1 
28 16 13 1 
29 17 45 1 
30 17 1 1 
31 17 103 1 
32 17 104 1 
33 18 1 1 
34 18 101 1 
35 18 102 1 
36 19 32 2 
37 21 23 1 
38 21 7 1 
39 21 6 2 
40 22 5 1 
41 22 8 2 
42 23 11 1 
43 23 24 1 
44 24 99 1 
45 24 100 1 
46 25 26 1 
47 25 96 1 
48 25 97 1 
49 25 98 1 
50 26 24 1 
51 26 95 1 
52 27 1 1 
53 27 16 1 
54 27 14 2 
55 28 13 1 
56 28 15 2 
57 29 28 1 
58 29 30 1 
59 30 93 1 
60 30 94 1 
61 31 32 1 
62 32 30 1 
63 33 40 2 
64 34 37 1 
65 34 91 1 
66 34 92 1 
67 35 39 2 
68 35 37 1 
69 35 90 1 
70 36 37 2 
71 36 89 1 
72 38 43 2 
73 38 33 1 
74 38 88 1 
75 39 33 1 
76 39 87 1 
77 40 36 1 
78 41 40 1 
79 41 86 1 
80 42 41 2 
81 42 85 1 
82 43 42 1 
83 43 84 1 
84 44 18 1 
85 44 34 1 
86 44 48 1 
87 45 44 1 
88 45 49 1 
89 46 49 2 
90 48 20 2 
91 49 47 1 
92 50 48 1 
93 50 47 1 
94 50 51 1 
95 51 82 1 
96 51 83 1 
97 52 66 1 
98 52 47 1 
99 52 80 1 
100 52 81 1 
101 53 47 1 
102 53 78 1 
103 53 79 1 
104 54 53 1 
105 54 76 1 
106 54 77 1 
107 55 54 1 
108 56 62 1 
109 57 56 2 
110 57 75 1 
111 58 60 2 
112 58 59 1 
113 58 74 1 
114 59 73 1 
115 60 51 1 
116 60 57 1 
117 61 65 2 
118 61 56 1 
119 61 72 1 
120 62 59 2 
121 63 62 1 
122 63 71 1 
123 64 63 2 
124 65 64 1 
125 66 55 1 
126 66 67 1 
127 66 68 1 
128 69 65 1 
129 70 64 1 
@<TRIPOS>SUBSTRUCTURE
1 CKW::FUZI_1 1 RESIDUE 1 CKW::A CKW::FUZI 1
