@<TRIPOS>MOLECULE
COMMON-LISP:NIL
119 129 1 0 0
POLYMER
CHARGES


@<TRIPOS>ATOM
1 C.b -1.09805 2.49364 -0.363362 C.3 1 FUZI_1    0.000
2 C_28893 4.586 -0.936 -1.928 C.3 1 FUZI_1    0.000
3 C_28894 3.617 0.214 -2.246 C.3 1 FUZI_1    0.000
4 C_28892 3.935 -2.152 -2.597 C.3 1 FUZI_1    0.000
5 N 2.314 -0.402 -2.527 N.am 1 FUZI_1    0.000
6 O 1.876 -3.644 -3.921 O.2 1 FUZI_1    0.000
7 C.e 2.433 -1.853 -2.462 C.3 1 FUZI_1    0.000
8 O 1.185 1.464 -2.956 O.2 1 FUZI_1    0.000
9 C_28904 -0.749 -0.914 -1.861 C.3 1 FUZI_1    0.000
10 C_28901 -1.112 0.241 -3.907 C.3 1 FUZI_1    0.000
11 C.d -0.034 -0.635 -3.201 C.3 1 FUZI_1    0.000
12 C_28918 -1.222 -4.461 -3.477 C.3 1 FUZI_1    0.000
13 C.c -1.877 0.949 -2.760 C.3 1 FUZI_1    0.000
14 O -1.029 0.305 0.661 O.2 1 FUZI_1    0.000
15 O -2.014 3.049 -3.846 O.2 1 FUZI_1    0.000
16 N -1.448 0.325 -1.512 N.am 1 FUZI_1    0.000
17 C_28912 -1.810 3.056 0.892 C.3 1 FUZI_1    0.000
18 C_28909 0.397 2.773 -0.053 C.3 1 FUZI_1    0.000
19 O -3.067 6.059 -0.602 O.co2 1 FUZI_1    0.000
20 O 2.612 1.975 1.649 O.2 1 FUZI_1    0.000
21 C_28900 1.541 -2.569 -3.460 C.2 1 FUZI_1    0.000
22 C_28897 1.188 0.249 -2.881 C.2 1 FUZI_1    0.000
23 N.d 0.387 -1.936 -3.835 N.am 1 FUZI_1    0.000
24 C.d2 -0.420 -2.484 -4.965 C.3 1 FUZI_1    0.000
25 C_28917 -2.925 -2.796 -4.364 C.3 1 FUZI_1    0.000
26 C_28916 -1.568 -3.484 -4.624 C.3 1 FUZI_1    0.000
27 C_28908 -1.219 0.962 -0.346 C.2 1 FUZI_1    0.000
28 C_28905 -1.799 2.463 -2.801 C.2 1 FUZI_1    0.000
29 N.b -1.522 3.137 -1.649 N.am 1 FUZI_1    0.000
30 C.b2 -1.524 4.624 -1.645 C.3 1 FUZI_1    0.000
31 OH -3.810 4.858 -2.196 O.co2 1 FUZI_1    0.000
32 C_28922 -2.906 5.230 -1.475 C.2 1 FUZI_1    0.000
33 C_28929 1.446 5.728 5.674 C.2 1 FUZI_1    0.000
34 C.a2 1.010 4.509 1.669 C.3 1 FUZI_1    0.000
35 C_28931 2.348 4.853 3.730 C.2 1 FUZI_1    0.000
36 C_28927 0.122 5.436 3.792 C.2 1 FUZI_1    0.000
37 C_28926 1.163 4.935 3.118 C.2 1 FUZI_1    0.000
38 C_28935 1.573 6.115 6.948 C.2 1 FUZI_1    0.000
39 C_28930 2.491 5.244 4.997 C.2 1 FUZI_1    0.000
40 C_28928 0.250 5.827 5.064 C.2 1 FUZI_1    0.000
41 C_28932 -0.799 6.310 5.739 C.2 1 FUZI_1    0.000
42 C_28933 -0.663 6.692 7.009 C.2 1 FUZI_1    0.000
43 C_28934 0.522 6.595 7.613 C.2 1 FUZI_1    0.000
44 C.a 0.502 3.046 1.477 C.3 1 FUZI_1    0.000
45 N -0.860 2.898 1.998 N.am 1 FUZI_1    0.000
46 O -2.342 2.547 3.601 O.2 1 FUZI_1    0.000
47 C_28938 -0.173 1.538 3.969 C.3 1 FUZI_1    0.000
48 C_28936 1.490 2.077 2.111 C.2 1 FUZI_1    0.000
49 C_28939 -1.206 2.381 3.198 C.2 1 FUZI_1    0.000
50 N.z 1.099 1.328 3.184 N.am 1 FUZI_1    0.000
51 C.z2 2.070 0.353 3.746 C.3 1 FUZI_1    0.000
52 C_28975 -0.905 0.184 4.295 C.3 1 FUZI_1    0.000
53 C_28944 0.145 2.296 5.300 C.3 1 FUZI_1    0.000
54 C_28945 0.194 1.395 6.555 C.3 1 FUZI_1    0.000
55 NH -1.090 0.673 6.766 N.2 1 FUZI_1    0.000
56 C_28979 1.700 -2.543 1.413 C.2 1 FUZI_1    0.000
57 C_28980 1.418 -1.501 2.200 C.2 1 FUZI_1    0.000
58 C_28976 3.653 -1.214 2.658 C.2 1 FUZI_1    0.000
59 C_28977 3.949 -2.251 1.874 C.2 1 FUZI_1    0.000
60 C_28943 2.385 -0.827 2.834 C.2 1 FUZI_1    0.000
61 C_28984 0.724 -3.213 0.789 C.2 1 FUZI_1    0.000
62 C_28978 2.979 -2.925 1.249 C.2 1 FUZI_1    0.000
63 C_28981 3.262 -3.973 0.468 C.2 1 FUZI_1    0.000
64 C_28982 2.283 -4.636 -0.150 C.2 1 FUZI_1    0.000
65 C_28983 1.015 -4.256 0.011 C.2 1 FUZI_1    0.000
66 C_28974 -1.823 0.251 5.541 C.3 1 FUZI_1    0.000
67 H_289741 -2.654 0.938 5.377 H 1 FUZI_1    0.000
68 H_289742 -2.244 -0.742 5.719 H 1 FUZI_1    0.000
69 H_28983 0.219 -4.797 -0.494 H 1 FUZI_1    0.000
70 H_28982 2.519 -5.485 -0.786 H 1 FUZI_1    0.000
71 H_28981 4.293 -4.293 0.327 H 1 FUZI_1    0.000
72 H_28984 -0.315 -2.915 0.911 H 1 FUZI_1    0.000
73 H_28977 4.990 -2.545 1.752 H 1 FUZI_1    0.000
74 H_28976 4.458 -0.684 3.160 H 1 FUZI_1    0.000
75 H_28980 0.383 -1.203 2.328 H 1 FUZI_1    0.000
76 H_289451 1.005 0.670 6.483 H 1 FUZI_1    0.000
77 H_289452 0.383 2.023 7.430 H 1 FUZI_1    0.000
78 H_289441 -0.606 3.067 5.489 H 1 FUZI_1    0.000
79 H_289442 1.100 2.815 5.214 H 1 FUZI_1    0.000
80 H_289751 -0.208 -0.630 4.485 H 1 FUZI_1    0.000
81 H_289752 -1.496 -0.135 3.433 H 1 FUZI_1    0.000
82 H.z21 1.739 -0.033 4.707 H 1 FUZI_1    0.000
83 H.z22 2.993 0.901 3.953 H 1 FUZI_1    0.000
84 H_28934 0.631 6.907 8.649 H 1 FUZI_1    0.000
85 H_28933 -1.519 7.083 7.554 H 1 FUZI_1    0.000
86 H_28932 -1.772 6.394 5.260 H 1 FUZI_1    0.000
87 H_28930 3.465 5.161 5.473 H 1 FUZI_1    0.000
88 H_28935 2.534 6.041 7.453 H 1 FUZI_1    0.000
89 H_28927 -0.844 5.517 3.297 H 1 FUZI_1    0.000
90 H_28931 3.211 4.460 3.196 H 1 FUZI_1    0.000
91 H.a21 0.322 5.198 1.171 H 1 FUZI_1    0.000
92 H.a22 1.969 4.627 1.158 H 1 FUZI_1    0.000
93 H.b21 -1.120 4.999 -2.589 H 1 FUZI_1    0.000
94 H.b22 -0.896 5.015 -0.842 H 1 FUZI_1    0.000
95 H_28916 -1.713 -4.092 -5.521 H 1 FUZI_1    0.000
96 H_289171 -2.912 -2.199 -3.453 H 1 FUZI_1    0.000
97 H_289172 -3.714 -3.545 -4.258 H 1 FUZI_1    0.000
98 H_289173 -3.194 -2.149 -5.202 H 1 FUZI_1    0.000
99 H.d21 0.272 -3.025 -5.615 H 1 FUZI_1    0.000
100 H.d22 -0.798 -1.681 -5.598 H 1 FUZI_1    0.000
101 H_289091 0.775 3.619 -0.630 H 1 FUZI_1    0.000
102 H_289092 1.016 1.923 -0.350 H 1 FUZI_1    0.000
103 H_289121 -2.034 4.119 0.809 H 1 FUZI_1    0.000
104 H_289122 -2.739 2.510 1.081 H 1 FUZI_1    0.000
105 H.c -2.942 0.724 -2.871 H 1 FUZI_1    0.000
106 H_289181 -0.331 -5.041 -3.720 H 1 FUZI_1    0.000
107 H_289182 -2.042 -5.166 -3.320 H 1 FUZI_1    0.000
108 H_289183 -1.051 -3.929 -2.539 H 1 FUZI_1    0.000
109 H_289011 -1.851 -0.346 -4.443 H 1 FUZI_1    0.000
110 H_289012 -0.672 0.933 -4.628 H 1 FUZI_1    0.000
111 H_289041 -1.481 -1.716 -1.958 H 1 FUZI_1    0.000
112 H_289042 -0.026 -1.189 -1.089 H 1 FUZI_1    0.000
113 H.e 2.094 -2.152 -1.469 H 1 FUZI_1    0.000
114 H_288921 4.222 -2.185 -3.651 H 1 FUZI_1    0.000
115 H_288922 4.221 -3.092 -2.120 H 1 FUZI_1    0.000
116 H_288941 3.541 0.905 -1.401 H 1 FUZI_1    0.000
117 H_288942 3.953 0.751 -3.137 H 1 FUZI_1    0.000
118 H_288931 4.632 -1.090 -0.847 H 1 FUZI_1    0.000
119 H_288932 5.594 -0.745 -2.303 H 1 FUZI_1    0.000
@<TRIPOS>BOND
1 1 29 1 
2 2 4 1 
3 2 118 1 
4 2 119 1 
5 3 2 1 
6 3 116 1 
7 3 117 1 
8 4 114 1 
9 4 115 1 
10 5 3 1 
11 7 5 1 
12 7 4 1 
13 7 113 1 
14 9 16 1 
15 9 111 1 
16 9 112 1 
17 10 11 1 
18 10 13 1 
19 10 109 1 
20 10 110 1 
21 11 22 1 
22 11 9 1 
23 12 26 1 
24 12 106 1 
25 12 107 1 
26 12 108 1 
27 13 105 1 
28 16 13 1 
29 17 45 1 
30 17 1 1 
31 17 103 1 
32 17 104 1 
33 18 1 1 
34 18 101 1 
35 18 102 1 
36 19 32 2 
37 21 23 1 
38 21 7 1 
39 21 6 2 
40 22 5 1 
41 22 8 2 
42 23 11 1 
43 23 24 1 
44 24 99 1 
45 24 100 1 
46 25 26 1 
47 25 96 1 
48 25 97 1 
49 25 98 1 
50 26 24 1 
51 26 95 1 
52 27 1 1 
53 27 16 1 
54 27 14 2 
55 28 13 1 
56 28 15 2 
57 29 28 1 
58 29 30 1 
59 30 93 1 
60 30 94 1 
61 31 32 1 
62 32 30 1 
63 33 40 2 
64 34 37 1 
65 34 91 1 
66 34 92 1 
67 35 39 2 
68 35 37 1 
69 35 90 1 
70 36 37 2 
71 36 89 1 
72 38 43 2 
73 38 33 1 
74 38 88 1 
75 39 33 1 
76 39 87 1 
77 40 36 1 
78 41 40 1 
79 41 86 1 
80 42 41 2 
81 42 85 1 
82 43 42 1 
83 43 84 1 
84 44 18 1 
85 44 34 1 
86 44 48 1 
87 45 44 1 
88 45 49 1 
89 46 49 2 
90 48 20 2 
91 49 47 1 
92 50 48 1 
93 50 47 1 
94 50 51 1 
95 51 82 1 
96 51 83 1 
97 52 66 1 
98 52 47 1 
99 52 80 1 
100 52 81 1 
101 53 47 1 
102 53 78 1 
103 53 79 1 
104 54 53 1 
105 54 76 1 
106 54 77 1 
107 55 54 1 
108 56 62 1 
109 57 56 2 
110 57 75 1 
111 58 60 2 
112 58 59 1 
113 58 74 1 
114 59 73 1 
115 60 51 1 
116 60 57 1 
117 61 65 2 
118 61 56 1 
119 61 72 1 
120 62 59 2 
121 63 62 1 
122 63 71 1 
123 64 63 2 
124 65 64 1 
125 66 55 1 
126 66 67 1 
127 66 68 1 
128 69 65 1 
129 70 64 1 
@<TRIPOS>SUBSTRUCTURE
1 CKW::FUZI_1 1 RESIDUE 1 CKW::A CKW::FUZI 1
