@<TRIPOS>MOLECULE
COMMON-LISP:NIL
119 129 1 0 0
POLYMER
CHARGES


@<TRIPOS>ATOM
1 C.b 1.38655 -0.413521 1.3697 C.3 1 FUZI_1    0.000
2 C_28893 -7.680 -1.405 1.347 C.3 1 FUZI_1    0.000
3 C_28894 -6.328 -1.381 0.616 C.3 1 FUZI_1    0.000
4 C_28892 -7.542 -0.311 2.412 C.3 1 FUZI_1    0.000
5 N -5.366 -0.741 1.524 N.am 1 FUZI_1    0.000
6 O -6.190 1.575 4.135 O.2 1 FUZI_1    0.000
7 C.e -6.044 -0.354 2.755 C.3 1 FUZI_1    0.000
8 O -3.561 -0.945 0.241 O.2 1 FUZI_1    0.000
9 C_28904 -2.159 1.111 1.480 C.3 1 FUZI_1    0.000
10 C_28901 -2.502 -0.540 3.191 C.3 1 FUZI_1    0.000
11 C.d -3.307 0.393 2.255 C.3 1 FUZI_1    0.000
12 C_28918 -3.365 4.981 3.859 C.3 1 FUZI_1    0.000
13 C.c -1.249 -0.910 2.378 C.3 1 FUZI_1    0.000
14 O 0.382 1.590 0.413 O.2 1 FUZI_1    0.000
15 O -0.221 -1.967 4.244 O.2 1 FUZI_1    0.000
16 N -0.970 0.256 1.555 N.am 1 FUZI_1    0.000
17 C_28912 1.391 -1.467 0.246 C.3 1 FUZI_1    0.000
18 C_28909 2.754 0.284 1.078 C.3 1 FUZI_1    0.000
19 O 2.592 -3.650 2.765 O.co2 1 FUZI_1    0.000
20 O 3.927 2.256 -0.804 O.2 1 FUZI_1    0.000
21 C_28900 -5.500 0.913 3.382 C.2 1 FUZI_1    0.000
22 C_28897 -4.067 -0.496 1.254 C.2 1 FUZI_1    0.000
23 N.d -4.226 1.278 3.055 N.am 1 FUZI_1    0.000
24 C.d2 -3.621 2.465 3.714 C.3 1 FUZI_1    0.000
25 C_28917 -3.854 3.959 1.601 C.3 1 FUZI_1    0.000
26 C_28916 -4.079 3.828 3.124 C.3 1 FUZI_1    0.000
27 C_28908 0.241 0.566 1.053 C.2 1 FUZI_1    0.000
28 C_28905 -0.056 -1.369 3.198 C.2 1 FUZI_1    0.000
29 N.b 1.186 -1.070 2.711 N.am 1 FUZI_1    0.000
30 C.b2 2.396 -1.423 3.497 C.3 1 FUZI_1    0.000
31 OH 4.346 -2.443 2.658 O.co2 1 FUZI_1    0.000
32 C_28922 3.173 -2.595 2.930 C.2 1 FUZI_1    0.000
33 C_28929 5.327 -1.504 -4.652 C.2 1 FUZI_1    0.000
34 C.a2 4.399 -0.630 -0.639 C.3 1 FUZI_1    0.000
35 C_28931 5.448 -0.088 -2.825 C.2 1 FUZI_1    0.000
36 C_28927 4.324 -2.088 -2.644 C.2 1 FUZI_1    0.000
37 C_28926 4.728 -0.941 -2.089 C.2 1 FUZI_1    0.000
38 C_28935 5.611 -1.789 -5.927 C.2 1 FUZI_1    0.000
39 C_28930 5.744 -0.364 -4.095 C.2 1 FUZI_1    0.000
40 C_28928 4.611 -2.376 -3.918 C.2 1 FUZI_1    0.000
41 C_28932 4.189 -3.518 -4.473 C.2 1 FUZI_1    0.000
42 C_28933 4.476 -3.793 -5.746 C.2 1 FUZI_1    0.000
43 C_28934 5.186 -2.930 -6.472 C.2 1 FUZI_1    0.000
44 C.a 3.028 0.093 -0.449 C.3 1 FUZI_1    0.000
45 N 1.941 -0.769 -0.919 N.am 1 FUZI_1    0.000
46 O 0.548 -1.548 -2.449 O.2 1 FUZI_1    0.000
47 C_28938 1.313 0.721 -2.812 C.3 1 FUZI_1    0.000
48 C_28936 3.076 1.450 -1.136 C.2 1 FUZI_1    0.000
49 C_28939 1.247 -0.627 -2.068 C.2 1 FUZI_1    0.000
50 N.z 2.154 1.748 -2.097 N.am 1 FUZI_1    0.000
51 C.z2 2.033 3.157 -2.578 C.3 1 FUZI_1    0.000
52 C_28975 -0.181 1.187 -2.981 C.3 1 FUZI_1    0.000
53 C_28944 1.944 0.446 -4.214 C.3 1 FUZI_1    0.000
54 C_28945 0.968 -0.203 -5.225 C.3 1 FUZI_1    0.000
55 NH -0.290 0.578 -5.400 N.2 1 FUZI_1    0.000
56 C_28979 -0.795 5.341 -1.506 C.2 1 FUZI_1    0.000
57 C_28980 0.011 4.565 -2.239 C.2 1 FUZI_1    0.000
58 C_28976 1.470 4.382 -0.474 C.2 1 FUZI_1    0.000
59 C_28977 0.678 5.157 0.268 C.2 1 FUZI_1    0.000
60 C_28943 1.144 4.065 -1.732 C.2 1 FUZI_1    0.000
61 C_28984 -1.934 5.821 -2.018 C.2 1 FUZI_1    0.000
62 C_28978 -0.460 5.638 -0.238 C.2 1 FUZI_1    0.000
63 C_28981 -1.265 6.411 0.498 C.2 1 FUZI_1    0.000
64 C_28982 -2.399 6.885 -0.020 C.2 1 FUZI_1    0.000
65 C_28983 -2.733 6.590 -1.276 C.2 1 FUZI_1    0.000
66 C_28974 -0.531 1.662 -4.411 C.3 1 FUZI_1    0.000
67 H_289741 -1.589 1.936 -4.445 H 1 FUZI_1    0.000
68 H_289742 0.055 2.537 -4.693 H 1 FUZI_1    0.000
69 H_28983 -3.658 6.977 -1.697 H 1 FUZI_1    0.000
70 H_28982 -3.051 7.512 0.583 H 1 FUZI_1    0.000
71 H_28981 -1.005 6.658 1.526 H 1 FUZI_1    0.000
72 H_28984 -2.220 5.588 -3.041 H 1 FUZI_1    0.000
73 H_28977 0.968 5.390 1.290 H 1 FUZI_1    0.000
74 H_28976 2.385 4.009 -0.029 H 1 FUZI_1    0.000
75 H_28980 -0.265 4.328 -3.264 H 1 FUZI_1    0.000
76 H_289451 1.466 -0.278 -6.195 H 1 FUZI_1    0.000
77 H_289452 0.711 -1.215 -4.905 H 1 FUZI_1    0.000
78 H_289441 2.817 -0.194 -4.107 H 1 FUZI_1    0.000
79 H_289442 2.308 1.373 -4.661 H 1 FUZI_1    0.000
80 H_289751 -0.434 1.956 -2.254 H 1 FUZI_1    0.000
81 H_289752 -0.879 0.379 -2.754 H 1 FUZI_1    0.000
82 H.z21 1.678 3.165 -3.607 H 1 FUZI_1    0.000
83 H.z22 3.032 3.599 -2.619 H 1 FUZI_1    0.000
84 H_28934 5.418 -3.156 -7.510 H 1 FUZI_1    0.000
85 H_28933 4.130 -4.722 -6.191 H 1 FUZI_1    0.000
86 H_28932 3.608 -4.231 -3.892 H 1 FUZI_1    0.000
87 H_28930 6.327 0.351 -4.673 H 1 FUZI_1    0.000
88 H_28935 6.189 -1.093 -6.532 H 1 FUZI_1    0.000
89 H_28927 3.745 -2.793 -2.050 H 1 FUZI_1    0.000
90 H_28931 5.797 0.846 -2.391 H 1 FUZI_1    0.000
91 H.a21 4.396 -1.565 -0.072 H 1 FUZI_1    0.000
92 H.a22 5.197 -0.023 -0.204 H 1 FUZI_1    0.000
93 H.b21 2.123 -1.708 4.516 H 1 FUZI_1    0.000
94 H.b22 3.060 -0.561 3.589 H 1 FUZI_1    0.000
95 H_28916 -5.151 3.932 3.306 H 1 FUZI_1    0.000
96 H_289171 -2.790 3.962 1.356 H 1 FUZI_1    0.000
97 H_289172 -4.282 4.896 1.238 H 1 FUZI_1    0.000
98 H_289173 -4.338 3.144 1.058 H 1 FUZI_1    0.000
99 H.d21 -2.532 2.402 3.721 H 1 FUZI_1    0.000
100 H.d22 -3.912 2.444 4.768 H 1 FUZI_1    0.000
101 H_289091 3.579 -0.161 1.627 H 1 FUZI_1    0.000
102 H_289092 2.732 1.335 1.377 H 1 FUZI_1    0.000
103 H_289121 2.045 -2.307 0.492 H 1 FUZI_1    0.000
104 H_289122 0.381 -1.839 0.053 H 1 FUZI_1    0.000
105 H.c -1.486 -1.737 1.703 H 1 FUZI_1    0.000
106 H_289181 -3.563 4.933 4.932 H 1 FUZI_1    0.000
107 H_289182 -3.718 5.948 3.492 H 1 FUZI_1    0.000
108 H_289183 -2.284 4.929 3.706 H 1 FUZI_1    0.000
109 H_289011 -3.070 -1.424 3.492 H 1 FUZI_1    0.000
110 H_289012 -2.202 -0.000 4.094 H 1 FUZI_1    0.000
111 H_289041 -2.433 1.289 0.436 H 1 FUZI_1    0.000
112 H_289042 -1.874 2.065 1.915 H 1 FUZI_1    0.000
113 H.e -5.868 -1.153 3.482 H 1 FUZI_1    0.000
114 H_288921 -7.803 0.658 1.979 H 1 FUZI_1    0.000
115 H_288922 -8.174 -0.498 3.283 H 1 FUZI_1    0.000
116 H_288941 -6.003 -2.395 0.364 H 1 FUZI_1    0.000
117 H_288942 -6.405 -0.780 -0.294 H 1 FUZI_1    0.000
118 H_288931 -7.819 -2.375 1.831 H 1 FUZI_1    0.000
119 H_288932 -8.519 -1.222 0.671 H 1 FUZI_1    0.000
@<TRIPOS>BOND
1 1 29 1 
2 2 4 1 
3 2 118 1 
4 2 119 1 
5 3 2 1 
6 3 116 1 
7 3 117 1 
8 4 114 1 
9 4 115 1 
10 5 3 1 
11 7 5 1 
12 7 4 1 
13 7 113 1 
14 9 16 1 
15 9 111 1 
16 9 112 1 
17 10 11 1 
18 10 13 1 
19 10 109 1 
20 10 110 1 
21 11 22 1 
22 11 9 1 
23 12 26 1 
24 12 106 1 
25 12 107 1 
26 12 108 1 
27 13 105 1 
28 16 13 1 
29 17 45 1 
30 17 1 1 
31 17 103 1 
32 17 104 1 
33 18 1 1 
34 18 101 1 
35 18 102 1 
36 19 32 2 
37 21 23 1 
38 21 7 1 
39 21 6 2 
40 22 5 1 
41 22 8 2 
42 23 11 1 
43 23 24 1 
44 24 99 1 
45 24 100 1 
46 25 26 1 
47 25 96 1 
48 25 97 1 
49 25 98 1 
50 26 24 1 
51 26 95 1 
52 27 1 1 
53 27 16 1 
54 27 14 2 
55 28 13 1 
56 28 15 2 
57 29 28 1 
58 29 30 1 
59 30 93 1 
60 30 94 1 
61 31 32 1 
62 32 30 1 
63 33 40 2 
64 34 37 1 
65 34 91 1 
66 34 92 1 
67 35 39 2 
68 35 37 1 
69 35 90 1 
70 36 37 2 
71 36 89 1 
72 38 43 2 
73 38 33 1 
74 38 88 1 
75 39 33 1 
76 39 87 1 
77 40 36 1 
78 41 40 1 
79 41 86 1 
80 42 41 2 
81 42 85 1 
82 43 42 1 
83 43 84 1 
84 44 18 1 
85 44 34 1 
86 44 48 1 
87 45 44 1 
88 45 49 1 
89 46 49 2 
90 48 20 2 
91 49 47 1 
92 50 48 1 
93 50 47 1 
94 50 51 1 
95 51 82 1 
96 51 83 1 
97 52 66 1 
98 52 47 1 
99 52 80 1 
100 52 81 1 
101 53 47 1 
102 53 78 1 
103 53 79 1 
104 54 53 1 
105 54 76 1 
106 54 77 1 
107 55 54 1 
108 56 62 1 
109 57 56 2 
110 57 75 1 
111 58 60 2 
112 58 59 1 
113 58 74 1 
114 59 73 1 
115 60 51 1 
116 60 57 1 
117 61 65 2 
118 61 56 1 
119 61 72 1 
120 62 59 2 
121 63 62 1 
122 63 71 1 
123 64 63 2 
124 65 64 1 
125 66 55 1 
126 66 67 1 
127 66 68 1 
128 69 65 1 
129 70 64 1 
@<TRIPOS>SUBSTRUCTURE
1 CKW::FUZI_1 1 RESIDUE 1 CKW::A CKW::FUZI 1
