@<TRIPOS>MOLECULE
COMMON-LISP:NIL
119 129 1 0 0
POLYMER
CHARGES


@<TRIPOS>ATOM
1 C.b 1.0682 0.544875 1.71778 C.3 1 FUZI_1    0.000
2 C_28893 8.219 -2.379 6.372 C.3 1 FUZI_1    0.000
3 C_28894 6.773 -2.629 5.914 C.3 1 FUZI_1    0.000
4 C_28892 8.211 -0.916 6.833 C.3 1 FUZI_1    0.000
5 N 6.192 -1.313 5.619 N.am 1 FUZI_1    0.000
6 O 7.252 1.793 7.064 O.2 1 FUZI_1    0.000
7 C.e 7.167 -0.267 5.909 C.3 1 FUZI_1    0.000
8 O 4.192 -2.001 4.914 O.2 1 FUZI_1    0.000
9 C_28904 2.944 0.476 5.097 C.3 1 FUZI_1    0.000
10 C_28901 4.848 0.956 3.757 C.3 1 FUZI_1    0.000
11 C.d 4.505 0.400 5.159 C.3 1 FUZI_1    0.000
12 C_28918 3.854 4.120 8.491 C.3 1 FUZI_1    0.000
13 C.c 3.733 0.407 2.852 C.3 1 FUZI_1    0.000
14 O 0.367 0.152 4.010 O.2 1 FUZI_1    0.000
15 O 4.464 1.697 0.999 O.2 1 FUZI_1    0.000
16 N 2.548 0.349 3.687 N.am 1 FUZI_1    0.000
17 C_28912 0.757 -0.828 1.092 C.3 1 FUZI_1    0.000
18 C_28909 -0.258 1.337 1.473 C.3 1 FUZI_1    0.000
19 O 2.910 -0.247 -1.428 O.co2 1 FUZI_1    0.000
20 O -1.793 2.542 -0.615 O.2 1 FUZI_1    0.000
21 C_28900 6.551 1.010 6.455 C.2 1 FUZI_1    0.000
22 C_28897 4.931 -1.077 5.201 C.2 1 FUZI_1    0.000
23 N.d 5.215 1.206 6.219 N.am 1 FUZI_1    0.000
24 C.d2 4.365 2.241 6.885 C.3 1 FUZI_1    0.000
25 C_28917 5.046 2.073 9.349 C.3 1 FUZI_1    0.000
26 C_28916 4.871 3.014 8.134 C.3 1 FUZI_1    0.000
27 C_28908 1.281 0.325 3.227 C.2 1 FUZI_1    0.000
28 C_28905 3.529 1.145 1.550 C.2 1 FUZI_1    0.000
29 N.b 2.267 1.160 1.031 N.am 1 FUZI_1    0.000
30 C.b2 2.064 1.675 -0.351 C.3 1 FUZI_1    0.000
31 OH 3.555 1.644 -2.168 O.co2 1 FUZI_1    0.000
32 C_28922 2.897 0.967 -1.404 C.2 1 FUZI_1    0.000
33 C_28929 -2.242 -2.825 4.128 C.2 1 FUZI_1    0.000
34 C.a2 -2.469 0.062 1.069 C.3 1 FUZI_1    0.000
35 C_28931 -2.251 -2.275 1.880 C.2 1 FUZI_1    0.000
36 C_28927 -2.463 -0.616 3.459 C.2 1 FUZI_1    0.000
37 C_28926 -2.376 -0.977 2.175 C.2 1 FUZI_1    0.000
38 C_28935 -2.164 -3.734 5.106 C.2 1 FUZI_1    0.000
39 C_28930 -2.178 -3.192 2.845 C.2 1 FUZI_1    0.000
40 C_28928 -2.390 -1.524 4.438 C.2 1 FUZI_1    0.000
41 C_28932 -2.457 -1.154 5.721 C.2 1 FUZI_1    0.000
42 C_28933 -2.377 -2.067 6.690 C.2 1 FUZI_1    0.000
43 C_28934 -2.231 -3.355 6.383 C.2 1 FUZI_1    0.000
44 C.a -1.111 0.525 0.444 C.3 1 FUZI_1    0.000
45 N -0.271 -0.614 0.066 N.am 1 FUZI_1    0.000
46 O 0.365 -2.268 -1.266 O.2 1 FUZI_1    0.000
47 C_28938 -1.112 -0.644 -2.276 C.3 1 FUZI_1    0.000
48 C_28936 -1.509 1.367 -0.761 C.2 1 FUZI_1    0.000
49 C_28939 -0.291 -1.252 -1.124 C.2 1 FUZI_1    0.000
50 N.z -1.569 0.766 -1.987 N.am 1 FUZI_1    0.000
51 C.z2 -2.150 1.516 -3.137 C.3 1 FUZI_1    0.000
52 C_28975 -2.333 -1.606 -2.460 C.3 1 FUZI_1    0.000
53 C_28944 -0.170 -0.702 -3.535 C.3 1 FUZI_1    0.000
54 C_28945 -0.304 -2.027 -4.318 C.3 1 FUZI_1    0.000
55 NH -1.689 -2.198 -4.837 N.2 1 FUZI_1    0.000
56 C_28979 -4.810 4.090 -2.754 C.2 1 FUZI_1    0.000
57 C_28980 -3.627 3.500 -2.952 C.2 1 FUZI_1    0.000
58 C_28976 -4.594 1.430 -2.683 C.2 1 FUZI_1    0.000
59 C_28977 -5.780 2.005 -2.484 C.2 1 FUZI_1    0.000
60 C_28943 -3.505 2.169 -2.916 C.2 1 FUZI_1    0.000
61 C_28984 -4.925 5.423 -2.787 C.2 1 FUZI_1    0.000
62 C_28978 -5.899 3.335 -2.517 C.2 1 FUZI_1    0.000
63 C_28981 -7.083 3.924 -2.317 C.2 1 FUZI_1    0.000
64 C_28982 -7.187 5.253 -2.352 C.2 1 FUZI_1    0.000
65 C_28983 -6.110 6.002 -2.587 C.2 1 FUZI_1    0.000
66 C_28974 -2.796 -1.789 -3.925 C.3 1 FUZI_1    0.000
67 H_289741 -3.563 -2.568 -3.951 H 1 FUZI_1    0.000
68 H_289742 -3.250 -0.873 -4.304 H 1 FUZI_1    0.000
69 H_28983 -6.196 7.085 -2.615 H 1 FUZI_1    0.000
70 H_28982 -8.152 5.727 -2.189 H 1 FUZI_1    0.000
71 H_28981 -7.971 3.325 -2.124 H 1 FUZI_1    0.000
72 H_28984 -4.054 6.047 -2.977 H 1 FUZI_1    0.000
73 H_28977 -6.650 1.379 -2.296 H 1 FUZI_1    0.000
74 H_28976 -4.525 0.348 -2.654 H 1 FUZI_1    0.000
75 H_28980 -2.746 4.111 -3.142 H 1 FUZI_1    0.000
76 H_289451 0.386 -2.013 -5.166 H 1 FUZI_1    0.000
77 H_289452 -0.051 -2.880 -3.684 H 1 FUZI_1    0.000
78 H_289441 0.871 -0.566 -3.233 H 1 FUZI_1    0.000
79 H_289442 -0.354 0.104 -4.243 H 1 FUZI_1    0.000
80 H_289751 -3.173 -1.275 -1.848 H 1 FUZI_1    0.000
81 H_289752 -2.083 -2.604 -2.091 H 1 FUZI_1    0.000
82 H.z21 -2.257 0.869 -4.004 H 1 FUZI_1    0.000
83 H.z22 -1.422 2.284 -3.414 H 1 FUZI_1    0.000
84 H_28934 -2.167 -4.098 7.174 H 1 FUZI_1    0.000
85 H_28933 -2.432 -1.759 7.731 H 1 FUZI_1    0.000
86 H_28932 -2.575 -0.105 5.987 H 1 FUZI_1    0.000
87 H_28930 -2.066 -4.240 2.576 H 1 FUZI_1    0.000
88 H_28935 -2.045 -4.790 4.869 H 1 FUZI_1    0.000
89 H_28927 -2.584 0.436 3.711 H 1 FUZI_1    0.000
90 H_28931 -2.200 -2.595 0.842 H 1 FUZI_1    0.000
91 H.a21 -3.100 -0.349 0.278 H 1 FUZI_1    0.000
92 H.a22 -3.007 0.941 1.436 H 1 FUZI_1    0.000
93 H.b21 2.332 2.735 -0.370 H 1 FUZI_1    0.000
94 H.b22 1.037 1.582 -0.688 H 1 FUZI_1    0.000
95 H_28916 5.812 3.521 7.914 H 1 FUZI_1    0.000
96 H_289171 5.410 2.632 10.214 H 1 FUZI_1    0.000
97 H_289172 5.760 1.275 9.142 H 1 FUZI_1    0.000
98 H_289173 4.093 1.610 9.619 H 1 FUZI_1    0.000
99 H.d21 3.446 1.753 7.217 H 1 FUZI_1    0.000
100 H.d22 4.102 2.976 6.119 H 1 FUZI_1    0.000
101 H_289091 -0.033 2.348 1.127 H 1 FUZI_1    0.000
102 H_289092 -0.829 1.487 2.390 H 1 FUZI_1    0.000
103 H_289121 1.660 -1.270 0.664 H 1 FUZI_1    0.000
104 H_289122 0.358 -1.514 1.843 H 1 FUZI_1    0.000
105 H.c 3.976 -0.622 2.572 H 1 FUZI_1    0.000
106 H_289181 2.876 3.691 8.723 H 1 FUZI_1    0.000
107 H_289182 3.735 4.815 7.657 H 1 FUZI_1    0.000
108 H_289183 4.195 4.689 9.358 H 1 FUZI_1    0.000
109 H_289011 5.838 0.652 3.410 H 1 FUZI_1    0.000
110 H_289012 4.806 2.049 3.771 H 1 FUZI_1    0.000
111 H_289041 2.476 -0.302 5.707 H 1 FUZI_1    0.000
112 H_289042 2.560 1.448 5.408 H 1 FUZI_1    0.000
113 H.e 7.646 0.000 4.962 H 1 FUZI_1    0.000
114 H_288921 7.880 -0.862 7.874 H 1 FUZI_1    0.000
115 H_288922 9.194 -0.448 6.744 H 1 FUZI_1    0.000
116 H_288941 6.750 -3.268 5.027 H 1 FUZI_1    0.000
117 H_288942 6.200 -3.093 6.721 H 1 FUZI_1    0.000
118 H_288931 8.898 -2.494 5.524 H 1 FUZI_1    0.000
119 H_288932 8.525 -3.062 7.168 H 1 FUZI_1    0.000
@<TRIPOS>BOND
1 1 29 1 
2 2 4 1 
3 2 118 1 
4 2 119 1 
5 3 2 1 
6 3 116 1 
7 3 117 1 
8 4 114 1 
9 4 115 1 
10 5 3 1 
11 7 5 1 
12 7 4 1 
13 7 113 1 
14 9 16 1 
15 9 111 1 
16 9 112 1 
17 10 11 1 
18 10 13 1 
19 10 109 1 
20 10 110 1 
21 11 22 1 
22 11 9 1 
23 12 26 1 
24 12 106 1 
25 12 107 1 
26 12 108 1 
27 13 105 1 
28 16 13 1 
29 17 45 1 
30 17 1 1 
31 17 103 1 
32 17 104 1 
33 18 1 1 
34 18 101 1 
35 18 102 1 
36 19 32 2 
37 21 23 1 
38 21 7 1 
39 21 6 2 
40 22 5 1 
41 22 8 2 
42 23 11 1 
43 23 24 1 
44 24 99 1 
45 24 100 1 
46 25 26 1 
47 25 96 1 
48 25 97 1 
49 25 98 1 
50 26 24 1 
51 26 95 1 
52 27 1 1 
53 27 16 1 
54 27 14 2 
55 28 13 1 
56 28 15 2 
57 29 28 1 
58 29 30 1 
59 30 93 1 
60 30 94 1 
61 31 32 1 
62 32 30 1 
63 33 40 2 
64 34 37 1 
65 34 91 1 
66 34 92 1 
67 35 39 2 
68 35 37 1 
69 35 90 1 
70 36 37 2 
71 36 89 1 
72 38 43 2 
73 38 33 1 
74 38 88 1 
75 39 33 1 
76 39 87 1 
77 40 36 1 
78 41 40 1 
79 41 86 1 
80 42 41 2 
81 42 85 1 
82 43 42 1 
83 43 84 1 
84 44 18 1 
85 44 34 1 
86 44 48 1 
87 45 44 1 
88 45 49 1 
89 46 49 2 
90 48 20 2 
91 49 47 1 
92 50 48 1 
93 50 47 1 
94 50 51 1 
95 51 82 1 
96 51 83 1 
97 52 66 1 
98 52 47 1 
99 52 80 1 
100 52 81 1 
101 53 47 1 
102 53 78 1 
103 53 79 1 
104 54 53 1 
105 54 76 1 
106 54 77 1 
107 55 54 1 
108 56 62 1 
109 57 56 2 
110 57 75 1 
111 58 60 2 
112 58 59 1 
113 58 74 1 
114 59 73 1 
115 60 51 1 
116 60 57 1 
117 61 65 2 
118 61 56 1 
119 61 72 1 
120 62 59 2 
121 63 62 1 
122 63 71 1 
123 64 63 2 
124 65 64 1 
125 66 55 1 
126 66 67 1 
127 66 68 1 
128 69 65 1 
129 70 64 1 
@<TRIPOS>SUBSTRUCTURE
1 CKW::FUZI_1 1 RESIDUE 1 CKW::A CKW::FUZI 1
