@<TRIPOS>MOLECULE
COMMON-LISP:NIL
119 129 1 0 0
POLYMER
CHARGES


@<TRIPOS>ATOM
1 C.b -1.14953 0.53285 -1.98582 C.3 1 FUZI_1    0.000
2 C_28893 -10.129 0.609 -2.890 C.3 1 FUZI_1    0.000
3 C_28894 -8.901 1.077 -2.093 C.3 1 FUZI_1    0.000
4 C_28892 -9.745 0.883 -4.348 C.3 1 FUZI_1    0.000
5 N -7.763 1.053 -3.020 N.am 1 FUZI_1    0.000
6 O -8.031 1.617 -6.525 O.2 1 FUZI_1    0.000
7 C.e -8.221 0.669 -4.353 C.3 1 FUZI_1    0.000
8 O -6.173 1.653 -1.578 O.2 1 FUZI_1    0.000
9 C_28904 -4.255 2.261 -3.492 C.3 1 FUZI_1    0.000
10 C_28901 -4.905 0.010 -4.020 C.3 1 FUZI_1    0.000
11 C.d -5.509 1.431 -3.909 C.3 1 FUZI_1    0.000
12 C_28918 -3.154 1.952 -6.783 C.3 1 FUZI_1    0.000
13 C.c -3.793 -0.021 -2.959 C.3 1 FUZI_1    0.000
14 O -1.799 2.862 -2.248 O.2 1 FUZI_1    0.000
15 O -2.944 -2.085 -3.781 O.2 1 FUZI_1    0.000
16 N -3.302 1.344 -2.856 N.am 1 FUZI_1    0.000
17 C_28912 0.321 1.020 -2.083 C.3 1 FUZI_1    0.000
18 C_28909 -1.304 0.241 -0.469 C.3 1 FUZI_1    0.000
19 O -1.275 -3.111 -1.288 O.co2 1 FUZI_1    0.000
20 O -0.468 -1.575 1.596 O.2 1 FUZI_1    0.000
21 C_28900 -7.481 1.391 -5.463 C.2 1 FUZI_1    0.000
22 C_28897 -6.490 1.390 -2.724 C.2 1 FUZI_1    0.000
23 N.d -6.206 1.808 -5.194 N.am 1 FUZI_1    0.000
24 C.d2 -5.535 2.762 -6.129 C.3 1 FUZI_1    0.000
25 C_28917 -5.184 0.905 -7.908 C.3 1 FUZI_1    0.000
26 C_28916 -4.612 2.176 -7.241 C.3 1 FUZI_1    0.000
27 C_28908 -2.096 1.687 -2.358 C.2 1 FUZI_1    0.000
28 C_28905 -2.700 -1.038 -3.209 C.2 1 FUZI_1    0.000
29 N.b -1.445 -0.724 -2.773 N.am 1 FUZI_1    0.000
30 C.b2 -0.345 -1.713 -2.963 C.3 1 FUZI_1    0.000
31 OH 0.783 -3.376 -1.758 O.co2 1 FUZI_1    0.000
32 C_28922 -0.281 -2.813 -1.919 C.2 1 FUZI_1    0.000
33 C_28929 -0.044 5.315 -0.209 C.2 1 FUZI_1    0.000
34 C.a2 0.238 1.367 1.240 C.3 1 FUZI_1    0.000
35 C_28931 -1.018 3.466 0.787 C.2 1 FUZI_1    0.000
36 C_28927 1.203 3.401 0.188 C.2 1 FUZI_1    0.000
37 C_28926 0.133 2.789 0.708 C.2 1 FUZI_1    0.000
38 C_28935 -0.124 6.565 -0.677 C.2 1 FUZI_1    0.000
39 C_28930 -1.109 4.715 0.330 C.2 1 FUZI_1    0.000
40 C_28928 1.124 4.651 -0.279 C.2 1 FUZI_1    0.000
41 C_28932 2.194 5.248 -0.815 C.2 1 FUZI_1    0.000
42 C_28933 2.105 6.495 -1.280 C.2 1 FUZI_1    0.000
43 C_28934 0.948 7.153 -1.211 C.2 1 FUZI_1    0.000
44 C.a 0.119 0.233 0.168 C.3 1 FUZI_1    0.000
45 N 1.043 0.425 -0.953 N.am 1 FUZI_1    0.000
46 O 3.023 0.340 -1.937 O.2 1 FUZI_1    0.000
47 C_28938 2.806 -0.967 0.099 C.3 1 FUZI_1    0.000
48 C_28936 0.398 -1.075 0.900 C.2 1 FUZI_1    0.000
49 C_28939 2.320 -0.012 -1.009 C.2 1 FUZI_1    0.000
50 N.z 1.630 -1.655 0.763 N.am 1 FUZI_1    0.000
51 C.z2 1.873 -2.990 1.384 C.3 1 FUZI_1    0.000
52 C_28975 3.556 -0.084 1.156 C.3 1 FUZI_1    0.000
53 C_28944 3.834 -1.971 -0.552 C.3 1 FUZI_1    0.000
54 C_28945 5.216 -1.360 -0.907 C.3 1 FUZI_1    0.000
55 NH 5.796 -0.547 0.198 N.2 1 FUZI_1    0.000
56 C_28979 4.541 -3.786 3.852 C.2 1 FUZI_1    0.000
57 C_28980 3.793 -3.776 2.743 C.2 1 FUZI_1    0.000
58 C_28976 2.372 -2.236 3.695 C.2 1 FUZI_1    0.000
59 C_28977 3.108 -2.237 4.807 C.2 1 FUZI_1    0.000
60 C_28943 2.710 -2.997 2.650 C.2 1 FUZI_1    0.000
61 C_28984 5.629 -4.559 3.936 C.2 1 FUZI_1    0.000
62 C_28978 4.196 -3.007 4.894 C.2 1 FUZI_1    0.000
63 C_28981 4.945 -3.014 6.002 C.2 1 FUZI_1    0.000
64 C_28982 6.028 -3.788 6.077 C.2 1 FUZI_1    0.000
65 C_28983 6.370 -4.560 5.045 C.2 1 FUZI_1    0.000
66 C_28974 5.005 -0.525 1.453 C.3 1 FUZI_1    0.000
67 H_289741 5.464 0.184 2.148 H 1 FUZI_1    0.000
68 H_289742 5.021 -1.515 1.912 H 1 FUZI_1    0.000
69 H_28983 7.253 -5.190 5.107 H 1 FUZI_1    0.000
70 H_28982 6.633 -3.790 6.980 H 1 FUZI_1    0.000
71 H_28981 4.677 -2.389 6.852 H 1 FUZI_1    0.000
72 H_28984 5.921 -5.194 3.101 H 1 FUZI_1    0.000
73 H_28977 2.813 -1.604 5.640 H 1 FUZI_1    0.000
74 H_28976 1.491 -1.602 3.646 H 1 FUZI_1    0.000
75 H_28980 4.072 -4.407 1.901 H 1 FUZI_1    0.000
76 H_289451 5.908 -2.175 -1.134 H 1 FUZI_1    0.000
77 H_289452 5.147 -0.736 -1.799 H 1 FUZI_1    0.000
78 H_289441 3.397 -2.431 -1.441 H 1 FUZI_1    0.000
79 H_289442 4.076 -2.785 0.127 H 1 FUZI_1    0.000
80 H_289751 3.009 -0.068 2.100 H 1 FUZI_1    0.000
81 H_289752 3.593 0.956 0.821 H 1 FUZI_1    0.000
82 H.z21 2.294 -3.666 0.639 H 1 FUZI_1    0.000
83 H.z22 0.916 -3.452 1.635 H 1 FUZI_1    0.000
84 H_28934 0.877 8.169 -1.590 H 1 FUZI_1    0.000
85 H_28933 2.978 6.976 -1.715 H 1 FUZI_1    0.000
86 H_28932 3.145 4.724 -0.878 H 1 FUZI_1    0.000
87 H_28930 -2.060 5.239 0.400 H 1 FUZI_1    0.000
88 H_28935 -1.062 7.114 -0.627 H 1 FUZI_1    0.000
89 H_28927 2.148 2.865 0.134 H 1 FUZI_1    0.000
90 H_28931 -1.897 2.999 1.223 H 1 FUZI_1    0.000
91 H.a21 1.190 1.272 1.762 H 1 FUZI_1    0.000
92 H.a22 -0.525 1.210 2.006 H 1 FUZI_1    0.000
93 H.b21 0.639 -1.251 -3.000 H 1 FUZI_1    0.000
94 H.b22 -0.482 -2.214 -3.926 H 1 FUZI_1    0.000
95 H_28916 -4.560 2.940 -8.021 H 1 FUZI_1    0.000
96 H_289171 -4.528 0.572 -8.715 H 1 FUZI_1    0.000
97 H_289172 -6.165 1.107 -8.341 H 1 FUZI_1    0.000
98 H_289173 -5.281 0.086 -7.193 H 1 FUZI_1    0.000
99 H.d21 -5.009 3.543 -5.578 H 1 FUZI_1    0.000
100 H.d22 -6.326 3.306 -6.651 H 1 FUZI_1    0.000
101 H_289091 -1.824 -0.707 -0.321 H 1 FUZI_1    0.000
102 H_289092 -1.939 0.991 0.006 H 1 FUZI_1    0.000
103 H_289121 0.768 0.761 -3.045 H 1 FUZI_1    0.000
104 H_289122 0.401 2.102 -1.975 H 1 FUZI_1    0.000
105 H.c -4.229 -0.279 -1.990 H 1 FUZI_1    0.000
106 H_289181 -2.535 1.647 -7.630 H 1 FUZI_1    0.000
107 H_289182 -3.077 1.179 -6.021 H 1 FUZI_1    0.000
108 H_289183 -2.732 2.877 -6.383 H 1 FUZI_1    0.000
109 H_289011 -4.477 -0.149 -5.009 H 1 FUZI_1    0.000
110 H_289012 -5.642 -0.778 -3.848 H 1 FUZI_1    0.000
111 H_289041 -3.727 2.685 -4.341 H 1 FUZI_1    0.000
112 H_289042 -4.520 3.076 -2.813 H 1 FUZI_1    0.000
113 H.e -8.009 -0.397 -4.476 H 1 FUZI_1    0.000
114 H_288921 -10.260 0.217 -5.045 H 1 FUZI_1    0.000
115 H_288922 -9.984 1.920 -4.598 H 1 FUZI_1    0.000
116 H_288941 -9.050 2.104 -1.746 H 1 FUZI_1    0.000
117 H_288942 -8.717 0.420 -1.239 H 1 FUZI_1    0.000
118 H_288931 -11.040 1.135 -2.595 H 1 FUZI_1    0.000
119 H_288932 -10.275 -0.465 -2.743 H 1 FUZI_1    0.000
@<TRIPOS>BOND
1 1 29 1 
2 2 4 1 
3 2 118 1 
4 2 119 1 
5 3 2 1 
6 3 116 1 
7 3 117 1 
8 4 114 1 
9 4 115 1 
10 5 3 1 
11 7 5 1 
12 7 4 1 
13 7 113 1 
14 9 16 1 
15 9 111 1 
16 9 112 1 
17 10 11 1 
18 10 13 1 
19 10 109 1 
20 10 110 1 
21 11 22 1 
22 11 9 1 
23 12 26 1 
24 12 106 1 
25 12 107 1 
26 12 108 1 
27 13 105 1 
28 16 13 1 
29 17 45 1 
30 17 1 1 
31 17 103 1 
32 17 104 1 
33 18 1 1 
34 18 101 1 
35 18 102 1 
36 19 32 2 
37 21 23 1 
38 21 7 1 
39 21 6 2 
40 22 5 1 
41 22 8 2 
42 23 11 1 
43 23 24 1 
44 24 99 1 
45 24 100 1 
46 25 26 1 
47 25 96 1 
48 25 97 1 
49 25 98 1 
50 26 24 1 
51 26 95 1 
52 27 1 1 
53 27 16 1 
54 27 14 2 
55 28 13 1 
56 28 15 2 
57 29 28 1 
58 29 30 1 
59 30 93 1 
60 30 94 1 
61 31 32 1 
62 32 30 1 
63 33 40 2 
64 34 37 1 
65 34 91 1 
66 34 92 1 
67 35 39 2 
68 35 37 1 
69 35 90 1 
70 36 37 2 
71 36 89 1 
72 38 43 2 
73 38 33 1 
74 38 88 1 
75 39 33 1 
76 39 87 1 
77 40 36 1 
78 41 40 1 
79 41 86 1 
80 42 41 2 
81 42 85 1 
82 43 42 1 
83 43 84 1 
84 44 18 1 
85 44 34 1 
86 44 48 1 
87 45 44 1 
88 45 49 1 
89 46 49 2 
90 48 20 2 
91 49 47 1 
92 50 48 1 
93 50 47 1 
94 50 51 1 
95 51 82 1 
96 51 83 1 
97 52 66 1 
98 52 47 1 
99 52 80 1 
100 52 81 1 
101 53 47 1 
102 53 78 1 
103 53 79 1 
104 54 53 1 
105 54 76 1 
106 54 77 1 
107 55 54 1 
108 56 62 1 
109 57 56 2 
110 57 75 1 
111 58 60 2 
112 58 59 1 
113 58 74 1 
114 59 73 1 
115 60 51 1 
116 60 57 1 
117 61 65 2 
118 61 56 1 
119 61 72 1 
120 62 59 2 
121 63 62 1 
122 63 71 1 
123 64 63 2 
124 65 64 1 
125 66 55 1 
126 66 67 1 
127 66 68 1 
128 69 65 1 
129 70 64 1 
@<TRIPOS>SUBSTRUCTURE
1 CKW::FUZI_1 1 RESIDUE 1 CKW::A CKW::FUZI 1
