@<TRIPOS>MOLECULE
COMMON-LISP:NIL
119 129 1 0 0
POLYMER
CHARGES


@<TRIPOS>ATOM
1 C.b 0.986597 0.766378 1.42759 C.3 1 FUZI_1    0.000
2 C_28893 4.648 -7.159 5.299 C.3 1 FUZI_1    0.000
3 C_28894 3.299 -6.740 4.691 C.3 1 FUZI_1    0.000
4 C_28892 5.673 -6.291 4.559 C.3 1 FUZI_1    0.000
5 N 3.498 -5.411 4.100 N.am 1 FUZI_1    0.000
6 O 6.630 -4.063 2.953 O.2 1 FUZI_1    0.000
7 C.e 4.889 -4.999 4.273 C.3 1 FUZI_1    0.000
8 O 1.407 -5.048 3.418 O.2 1 FUZI_1    0.000
9 C_28904 2.065 -2.937 1.648 C.3 1 FUZI_1    0.000
10 C_28901 3.012 -2.240 3.723 C.3 1 FUZI_1    0.000
11 C.d 3.082 -3.427 2.728 C.3 1 FUZI_1    0.000
12 C_28918 6.472 -4.803 0.026 C.3 1 FUZI_1    0.000
13 C.c 2.803 -1.009 2.832 C.3 1 FUZI_1    0.000
14 O 0.679 -1.143 -0.040 O.2 1 FUZI_1    0.000
15 O 2.623 0.477 4.675 O.2 1 FUZI_1    0.000
16 N 1.976 -1.474 1.733 N.am 1 FUZI_1    0.000
17 C_28912 1.772 1.657 0.448 C.3 1 FUZI_1    0.000
18 C_28909 -0.495 1.140 1.116 C.3 1 FUZI_1    0.000
19 O 0.361 2.827 5.609 O.co2 1 FUZI_1    0.000
20 O -2.539 0.842 -0.881 O.2 1 FUZI_1    0.000
21 C_28900 5.430 -4.181 3.115 C.2 1 FUZI_1    0.000
22 C_28897 2.568 -4.685 3.442 C.2 1 FUZI_1    0.000
23 N.d 4.515 -3.606 2.279 N.am 1 FUZI_1    0.000
24 C.d2 4.963 -2.946 1.017 C.3 1 FUZI_1    0.000
25 C_28917 4.039 -4.731 -0.637 C.3 1 FUZI_1    0.000
26 C_28916 5.252 -3.883 -0.199 C.3 1 FUZI_1    0.000
27 C_28908 1.199 -0.686 0.963 C.2 1 FUZI_1    0.000
28 C_28905 2.275 0.220 3.538 C.2 1 FUZI_1    0.000
29 N.b 1.415 1.020 2.846 N.am 1 FUZI_1    0.000
30 C.b2 1.042 2.341 3.414 C.3 1 FUZI_1    0.000
31 OH -0.921 1.563 4.471 O.co2 1 FUZI_1    0.000
32 C_28922 0.075 2.249 4.580 C.2 1 FUZI_1    0.000
33 C_28929 -4.905 4.153 1.000 C.2 1 FUZI_1    0.000
34 C.a2 -0.889 3.402 -0.043 C.3 1 FUZI_1    0.000
35 C_28931 -3.266 3.846 -0.604 C.2 1 FUZI_1    0.000
36 C_28927 -2.708 3.752 1.625 C.2 1 FUZI_1    0.000
37 C_28926 -2.340 3.660 0.342 C.2 1 FUZI_1    0.000
38 C_28935 -6.178 4.389 1.337 C.2 1 FUZI_1    0.000
39 C_28930 -4.537 4.083 -0.282 C.2 1 FUZI_1    0.000
40 C_28928 -3.980 3.989 1.963 C.2 1 FUZI_1    0.000
41 C_28932 -4.342 4.066 3.248 C.2 1 FUZI_1    0.000
42 C_28933 -5.614 4.302 3.575 C.2 1 FUZI_1    0.000
43 C_28934 -6.530 4.463 2.621 C.2 1 FUZI_1    0.000
44 C.a -0.500 1.899 -0.249 C.3 1 FUZI_1    0.000
45 N 0.892 1.851 -0.707 N.am 1 FUZI_1    0.000
46 O 2.492 1.914 -2.239 O.2 1 FUZI_1    0.000
47 C_28938 0.229 1.685 -3.092 C.3 1 FUZI_1    0.000
48 C_28936 -1.439 1.220 -1.244 C.2 1 FUZI_1    0.000
49 C_28939 1.302 1.839 -1.996 C.2 1 FUZI_1    0.000
50 N.z -1.004 1.016 -2.524 N.am 1 FUZI_1    0.000
51 C.z2 -1.813 0.155 -3.436 C.3 1 FUZI_1    0.000
52 C_28975 0.885 0.913 -4.299 C.3 1 FUZI_1    0.000
53 C_28944 -0.147 3.131 -3.567 C.3 1 FUZI_1    0.000
54 C_28945 -0.155 3.323 -5.100 C.3 1 FUZI_1    0.000
55 NH 1.179 3.015 -5.676 N.2 1 FUZI_1    0.000
56 C_28979 -4.186 2.517 -5.059 C.2 1 FUZI_1    0.000
57 C_28980 -3.465 1.866 -4.140 C.2 1 FUZI_1    0.000
58 C_28976 -2.546 0.535 -5.776 C.2 1 FUZI_1    0.000
59 C_28977 -3.261 1.173 -6.703 C.2 1 FUZI_1    0.000
60 C_28943 -2.633 0.879 -4.487 C.2 1 FUZI_1    0.000
61 C_28984 -5.008 3.511 -4.704 C.2 1 FUZI_1    0.000
62 C_28978 -4.081 2.169 -6.354 C.2 1 FUZI_1    0.000
63 C_28981 -4.800 2.820 -7.275 C.2 1 FUZI_1    0.000
64 C_28982 -5.617 3.810 -6.913 C.2 1 FUZI_1    0.000
65 C_28983 -5.721 4.155 -5.629 C.2 1 FUZI_1    0.000
66 C_28974 1.836 1.779 -5.167 C.3 1 FUZI_1    0.000
67 H_289741 2.729 2.064 -4.610 H 1 FUZI_1    0.000
68 H_289742 2.160 1.185 -6.026 H 1 FUZI_1    0.000
69 H_28983 -6.387 4.962 -5.336 H 1 FUZI_1    0.000
70 H_28982 -6.199 4.337 -7.665 H 1 FUZI_1    0.000
71 H_28981 -4.726 2.549 -8.326 H 1 FUZI_1    0.000
72 H_28984 -5.102 3.803 -3.661 H 1 FUZI_1    0.000
73 H_28977 -3.166 0.876 -7.745 H 1 FUZI_1    0.000
74 H_28976 -1.883 -0.272 -6.081 H 1 FUZI_1    0.000
75 H_28980 -3.555 2.144 -3.094 H 1 FUZI_1    0.000
76 H_289451 -0.906 2.683 -5.564 H 1 FUZI_1    0.000
77 H_289452 -0.404 4.362 -5.329 H 1 FUZI_1    0.000
78 H_289441 0.558 3.856 -3.153 H 1 FUZI_1    0.000
79 H_289442 -1.128 3.415 -3.184 H 1 FUZI_1    0.000
80 H_289751 0.139 0.556 -5.005 H 1 FUZI_1    0.000
81 H_289752 1.414 0.028 -3.936 H 1 FUZI_1    0.000
82 H.z21 -2.511 -0.440 -2.843 H 1 FUZI_1    0.000
83 H.z22 -1.165 -0.592 -3.898 H 1 FUZI_1    0.000
84 H_28934 -7.566 4.655 2.889 H 1 FUZI_1    0.000
85 H_28933 -5.903 4.362 4.622 H 1 FUZI_1    0.000
86 H_28932 -3.605 3.936 4.038 H 1 FUZI_1    0.000
87 H_28930 -5.269 4.222 -1.075 H 1 FUZI_1    0.000
88 H_28935 -6.936 4.525 0.568 H 1 FUZI_1    0.000
89 H_28927 -1.962 3.635 2.408 H 1 FUZI_1    0.000
90 H_28931 -2.985 3.802 -1.653 H 1 FUZI_1    0.000
91 H.a21 -0.671 3.957 -0.956 H 1 FUZI_1    0.000
92 H.a22 -0.235 3.842 0.714 H 1 FUZI_1    0.000
93 H.b21 0.598 2.997 2.664 H 1 FUZI_1    0.000
94 H.b22 1.949 2.833 3.777 H 1 FUZI_1    0.000
95 H_28916 5.507 -3.232 -1.039 H 1 FUZI_1    0.000
96 H_289171 4.325 -5.427 -1.428 H 1 FUZI_1    0.000
97 H_289172 3.251 -4.094 -1.042 H 1 FUZI_1    0.000
98 H_289173 3.638 -5.312 0.198 H 1 FUZI_1    0.000
99 H.d21 5.879 -2.391 1.237 H 1 FUZI_1    0.000
100 H.d22 4.245 -2.194 0.694 H 1 FUZI_1    0.000
101 H_289091 -0.943 1.747 1.892 H 1 FUZI_1    0.000
102 H_289092 -1.113 0.239 1.091 H 1 FUZI_1    0.000
103 H_289121 1.986 2.635 0.885 H 1 FUZI_1    0.000
104 H_289122 2.713 1.179 0.161 H 1 FUZI_1    0.000
105 H.c 3.765 -0.712 2.406 H 1 FUZI_1    0.000
106 H_289181 7.342 -4.221 0.339 H 1 FUZI_1    0.000
107 H_289182 6.734 -5.319 -0.901 H 1 FUZI_1    0.000
108 H_289183 6.261 -5.562 0.782 H 1 FUZI_1    0.000
109 H_289011 3.907 -2.145 4.342 H 1 FUZI_1    0.000
110 H_289012 2.149 -2.355 4.385 H 1 FUZI_1    0.000
111 H_289041 2.339 -3.242 0.644 H 1 FUZI_1    0.000
112 H_289042 1.061 -3.316 1.848 H 1 FUZI_1    0.000
113 H.e 4.928 -4.354 5.155 H 1 FUZI_1    0.000
114 H_288921 6.570 -6.109 5.155 H 1 FUZI_1    0.000
115 H_288922 5.956 -6.776 3.621 H 1 FUZI_1    0.000
116 H_288941 3.014 -7.437 3.898 H 1 FUZI_1    0.000
117 H_288942 2.519 -6.708 5.456 H 1 FUZI_1    0.000
118 H_288931 4.843 -8.226 5.176 H 1 FUZI_1    0.000
119 H_288932 4.660 -6.916 6.365 H 1 FUZI_1    0.000
@<TRIPOS>BOND
1 1 29 1 
2 2 4 1 
3 2 118 1 
4 2 119 1 
5 3 2 1 
6 3 116 1 
7 3 117 1 
8 4 114 1 
9 4 115 1 
10 5 3 1 
11 7 5 1 
12 7 4 1 
13 7 113 1 
14 9 16 1 
15 9 111 1 
16 9 112 1 
17 10 11 1 
18 10 13 1 
19 10 109 1 
20 10 110 1 
21 11 22 1 
22 11 9 1 
23 12 26 1 
24 12 106 1 
25 12 107 1 
26 12 108 1 
27 13 105 1 
28 16 13 1 
29 17 45 1 
30 17 1 1 
31 17 103 1 
32 17 104 1 
33 18 1 1 
34 18 101 1 
35 18 102 1 
36 19 32 2 
37 21 23 1 
38 21 7 1 
39 21 6 2 
40 22 5 1 
41 22 8 2 
42 23 11 1 
43 23 24 1 
44 24 99 1 
45 24 100 1 
46 25 26 1 
47 25 96 1 
48 25 97 1 
49 25 98 1 
50 26 24 1 
51 26 95 1 
52 27 1 1 
53 27 16 1 
54 27 14 2 
55 28 13 1 
56 28 15 2 
57 29 28 1 
58 29 30 1 
59 30 93 1 
60 30 94 1 
61 31 32 1 
62 32 30 1 
63 33 40 2 
64 34 37 1 
65 34 91 1 
66 34 92 1 
67 35 39 2 
68 35 37 1 
69 35 90 1 
70 36 37 2 
71 36 89 1 
72 38 43 2 
73 38 33 1 
74 38 88 1 
75 39 33 1 
76 39 87 1 
77 40 36 1 
78 41 40 1 
79 41 86 1 
80 42 41 2 
81 42 85 1 
82 43 42 1 
83 43 84 1 
84 44 18 1 
85 44 34 1 
86 44 48 1 
87 45 44 1 
88 45 49 1 
89 46 49 2 
90 48 20 2 
91 49 47 1 
92 50 48 1 
93 50 47 1 
94 50 51 1 
95 51 82 1 
96 51 83 1 
97 52 66 1 
98 52 47 1 
99 52 80 1 
100 52 81 1 
101 53 47 1 
102 53 78 1 
103 53 79 1 
104 54 53 1 
105 54 76 1 
106 54 77 1 
107 55 54 1 
108 56 62 1 
109 57 56 2 
110 57 75 1 
111 58 60 2 
112 58 59 1 
113 58 74 1 
114 59 73 1 
115 60 51 1 
116 60 57 1 
117 61 65 2 
118 61 56 1 
119 61 72 1 
120 62 59 2 
121 63 62 1 
122 63 71 1 
123 64 63 2 
124 65 64 1 
125 66 55 1 
126 66 67 1 
127 66 68 1 
128 69 65 1 
129 70 64 1 
@<TRIPOS>SUBSTRUCTURE
1 CKW::FUZI_1 1 RESIDUE 1 CKW::A CKW::FUZI 1
