@<TRIPOS>MOLECULE
COMMON-LISP:NIL
119 129 1 0 0
POLYMER
CHARGES


@<TRIPOS>ATOM
1 C.b 0.325823 1.63479 -0.419073 C.3 1 FUZI_1    0.000
2 C_28893 7.049 6.336 -4.549 C.3 1 FUZI_1    0.000
3 C_28894 6.589 5.124 -3.723 C.3 1 FUZI_1    0.000
4 C_28892 6.169 7.484 -4.039 C.3 1 FUZI_1    0.000
5 N 5.245 5.438 -3.221 N.am 1 FUZI_1    0.000
6 O 3.933 8.736 -2.705 O.2 1 FUZI_1    0.000
7 C.e 4.859 6.772 -3.667 C.3 1 FUZI_1    0.000
8 O 4.851 3.510 -2.182 O.2 1 FUZI_1    0.000
9 C_28904 2.881 4.532 -0.502 C.3 1 FUZI_1    0.000
10 C_28901 2.029 4.849 -2.726 C.3 1 FUZI_1    0.000
11 C.d 3.218 5.276 -1.834 C.3 1 FUZI_1    0.000
12 C_28918 4.166 8.813 0.474 C.3 1 FUZI_1    0.000
13 C.c 1.690 3.427 -2.250 C.3 1 FUZI_1    0.000
14 O 1.905 2.509 1.199 O.2 1 FUZI_1    0.000
15 O -0.264 3.341 -3.595 O.2 1 FUZI_1    0.000
16 N 1.999 3.404 -0.830 N.am 1 FUZI_1    0.000
17 C_28912 -0.736 1.552 0.717 C.3 1 FUZI_1    0.000
18 C_28909 0.862 0.181 -0.526 C.3 1 FUZI_1    0.000
19 O -0.723 -0.078 -3.730 O.co2 1 FUZI_1    0.000
20 O 0.674 -2.714 -0.490 O.2 1 FUZI_1    0.000
21 C_28900 3.990 7.521 -2.677 C.2 1 FUZI_1    0.000
22 C_28897 4.493 4.648 -2.425 C.2 1 FUZI_1    0.000
23 N.d 3.298 6.778 -1.765 N.am 1 FUZI_1    0.000
24 C.d2 2.396 7.446 -0.791 C.3 1 FUZI_1    0.000
25 C_28917 1.970 8.224 1.577 C.3 1 FUZI_1    0.000
26 C_28916 3.051 7.751 0.584 C.3 1 FUZI_1    0.000
27 C_28908 1.476 2.537 0.060 C.2 1 FUZI_1    0.000
28 C_28905 0.298 2.946 -2.591 C.2 1 FUZI_1    0.000
29 N.b -0.287 2.067 -1.727 N.am 1 FUZI_1    0.000
30 C.b2 -1.567 1.396 -2.094 C.3 1 FUZI_1    0.000
31 OH -2.425 1.089 -4.262 O.co2 1 FUZI_1    0.000
32 C_28922 -1.575 0.746 -3.465 C.2 1 FUZI_1    0.000
33 C_28929 -0.628 -2.994 4.967 C.2 1 FUZI_1    0.000
34 C.a2 1.088 -0.824 1.792 C.3 1 FUZI_1    0.000
35 C_28931 0.649 -2.928 3.038 C.2 1 FUZI_1    0.000
36 C_28927 -0.260 -0.984 3.870 C.2 1 FUZI_1    0.000
37 C_28926 0.464 -1.608 2.935 C.2 1 FUZI_1    0.000
38 C_28935 -1.185 -3.675 5.974 C.2 1 FUZI_1    0.000
39 C_28930 0.108 -3.617 4.043 C.2 1 FUZI_1    0.000
40 C_28928 -0.812 -1.663 4.881 C.2 1 FUZI_1    0.000
41 C_28932 -1.550 -1.036 5.803 C.2 1 FUZI_1    0.000
42 C_28933 -2.102 -1.724 6.804 C.2 1 FUZI_1    0.000
43 C_28934 -1.919 -3.042 6.889 C.2 1 FUZI_1    0.000
44 C.a 0.141 -0.657 0.563 C.3 1 FUZI_1    0.000
45 N -1.033 0.132 0.926 N.am 1 FUZI_1    0.000
46 O -3.071 0.401 1.749 O.2 1 FUZI_1    0.000
47 C_28938 -2.607 -1.792 0.837 C.3 1 FUZI_1    0.000
48 C_28936 -0.199 -2.037 0.026 C.2 1 FUZI_1    0.000
49 C_28939 -2.261 -0.343 1.226 C.2 1 FUZI_1    0.000
50 N.z -1.476 -2.501 0.141 N.am 1 FUZI_1    0.000
51 C.z2 -1.777 -3.879 -0.328 C.3 1 FUZI_1    0.000
52 C_28975 -3.853 -1.685 -0.116 C.3 1 FUZI_1    0.000
53 C_28944 -2.987 -2.549 2.155 C.3 1 FUZI_1    0.000
54 C_28945 -4.367 -3.241 2.102 C.3 1 FUZI_1    0.000
55 NH -5.429 -2.250 1.798 N.2 1 FUZI_1    0.000
56 C_28979 -1.118 -5.549 -3.582 C.2 1 FUZI_1    0.000
57 C_28980 -1.247 -5.308 -2.273 C.2 1 FUZI_1    0.000
58 C_28976 -1.926 -3.156 -2.719 C.2 1 FUZI_1    0.000
59 C_28977 -1.802 -3.382 -4.027 C.2 1 FUZI_1    0.000
60 C_28943 -1.649 -4.114 -1.826 C.2 1 FUZI_1    0.000
61 C_28984 -0.713 -6.746 -4.022 C.2 1 FUZI_1    0.000
62 C_28978 -1.398 -4.576 -4.469 C.2 1 FUZI_1    0.000
63 C_28981 -1.269 -4.815 -5.778 C.2 1 FUZI_1    0.000
64 C_28982 -0.865 -6.011 -6.207 C.2 1 FUZI_1    0.000
65 C_28983 -0.588 -6.976 -5.329 C.2 1 FUZI_1    0.000
66 C_28974 -5.194 -1.389 0.604 C.3 1 FUZI_1    0.000
67 H_289741 -5.232 -0.344 0.917 H 1 FUZI_1    0.000
68 H_289742 -6.012 -1.547 -0.103 H 1 FUZI_1    0.000
69 H_28983 -0.258 -7.951 -5.680 H 1 FUZI_1    0.000
70 H_28982 -0.762 -6.200 -7.272 H 1 FUZI_1    0.000
71 H_28981 -1.492 -4.036 -6.505 H 1 FUZI_1    0.000
72 H_28984 -0.483 -7.543 -3.317 H 1 FUZI_1    0.000
73 H_28977 -2.032 -2.583 -4.729 H 1 FUZI_1    0.000
74 H_28976 -2.253 -2.173 -2.391 H 1 FUZI_1    0.000
75 H_28980 -1.020 -6.095 -1.556 H 1 FUZI_1    0.000
76 H_289451 -4.379 -4.029 1.346 H 1 FUZI_1    0.000
77 H_289452 -4.577 -3.695 3.074 H 1 FUZI_1    0.000
78 H_289441 -2.999 -1.863 3.005 H 1 FUZI_1    0.000
79 H_289442 -2.232 -3.301 2.393 H 1 FUZI_1    0.000
80 H_289751 -4.009 -2.609 -0.671 H 1 FUZI_1    0.000
81 H_289752 -3.676 -0.915 -0.871 H 1 FUZI_1    0.000
82 H.z21 -2.773 -4.190 -0.015 H 1 FUZI_1    0.000
83 H.z22 -1.082 -4.547 0.191 H 1 FUZI_1    0.000
84 H_28934 -2.370 -3.600 7.706 H 1 FUZI_1    0.000
85 H_28933 -2.702 -1.209 7.551 H 1 FUZI_1    0.000
86 H_28932 -1.709 0.039 5.745 H 1 FUZI_1    0.000
87 H_28930 0.269 -4.691 4.098 H 1 FUZI_1    0.000
88 H_28935 -1.044 -4.751 6.056 H 1 FUZI_1    0.000
89 H_28927 -0.409 0.092 3.799 H 1 FUZI_1    0.000
90 H_28931 1.243 -3.454 2.294 H 1 FUZI_1    0.000
91 H.a21 1.390 0.157 2.163 H 1 FUZI_1    0.000
92 H.a22 2.010 -1.318 1.476 H 1 FUZI_1    0.000
93 H.b21 -2.371 2.137 -2.067 H 1 FUZI_1    0.000
94 H.b22 -1.817 0.592 -1.404 H 1 FUZI_1    0.000
95 H_28916 3.498 6.840 0.985 H 1 FUZI_1    0.000
96 H_289171 2.407 8.415 2.560 H 1 FUZI_1    0.000
97 H_289172 1.197 7.460 1.695 H 1 FUZI_1    0.000
98 H_289173 1.494 9.143 1.226 H 1 FUZI_1    0.000
99 H.d21 1.507 6.829 -0.642 H 1 FUZI_1    0.000
100 H.d22 2.033 8.384 -1.219 H 1 FUZI_1    0.000
101 H_289091 1.949 0.137 -0.416 H 1 FUZI_1    0.000
102 H_289092 0.643 -0.227 -1.514 H 1 FUZI_1    0.000
103 H_289121 -0.367 1.956 1.662 H 1 FUZI_1    0.000
104 H_289122 -1.641 2.103 0.448 H 1 FUZI_1    0.000
105 H.c 2.369 2.720 -2.734 H 1 FUZI_1    0.000
106 H_289181 4.990 8.450 -0.145 H 1 FUZI_1    0.000
107 H_289182 4.573 9.044 1.462 H 1 FUZI_1    0.000
108 H_289183 3.783 9.738 0.037 H 1 FUZI_1    0.000
109 H_289011 2.272 4.876 -3.791 H 1 FUZI_1    0.000
110 H_289012 1.170 5.503 -2.553 H 1 FUZI_1    0.000
111 H_289041 3.788 4.178 -0.003 H 1 FUZI_1    0.000
112 H_289042 2.328 5.150 0.203 H 1 FUZI_1    0.000
113 H.e 4.254 6.644 -4.569 H 1 FUZI_1    0.000
114 H_288921 6.624 7.928 -3.150 H 1 FUZI_1    0.000
115 H_288922 6.021 8.260 -4.794 H 1 FUZI_1    0.000
116 H_288941 6.569 4.219 -4.337 H 1 FUZI_1    0.000
117 H_288942 7.258 4.978 -2.870 H 1 FUZI_1    0.000
118 H_288931 6.845 6.158 -5.607 H 1 FUZI_1    0.000
119 H_288932 8.114 6.543 -4.422 H 1 FUZI_1    0.000
@<TRIPOS>BOND
1 1 29 1 
2 2 4 1 
3 2 118 1 
4 2 119 1 
5 3 2 1 
6 3 116 1 
7 3 117 1 
8 4 114 1 
9 4 115 1 
10 5 3 1 
11 7 5 1 
12 7 4 1 
13 7 113 1 
14 9 16 1 
15 9 111 1 
16 9 112 1 
17 10 11 1 
18 10 13 1 
19 10 109 1 
20 10 110 1 
21 11 22 1 
22 11 9 1 
23 12 26 1 
24 12 106 1 
25 12 107 1 
26 12 108 1 
27 13 105 1 
28 16 13 1 
29 17 45 1 
30 17 1 1 
31 17 103 1 
32 17 104 1 
33 18 1 1 
34 18 101 1 
35 18 102 1 
36 19 32 2 
37 21 23 1 
38 21 7 1 
39 21 6 2 
40 22 5 1 
41 22 8 2 
42 23 11 1 
43 23 24 1 
44 24 99 1 
45 24 100 1 
46 25 26 1 
47 25 96 1 
48 25 97 1 
49 25 98 1 
50 26 24 1 
51 26 95 1 
52 27 1 1 
53 27 16 1 
54 27 14 2 
55 28 13 1 
56 28 15 2 
57 29 28 1 
58 29 30 1 
59 30 93 1 
60 30 94 1 
61 31 32 1 
62 32 30 1 
63 33 40 2 
64 34 37 1 
65 34 91 1 
66 34 92 1 
67 35 39 2 
68 35 37 1 
69 35 90 1 
70 36 37 2 
71 36 89 1 
72 38 43 2 
73 38 33 1 
74 38 88 1 
75 39 33 1 
76 39 87 1 
77 40 36 1 
78 41 40 1 
79 41 86 1 
80 42 41 2 
81 42 85 1 
82 43 42 1 
83 43 84 1 
84 44 18 1 
85 44 34 1 
86 44 48 1 
87 45 44 1 
88 45 49 1 
89 46 49 2 
90 48 20 2 
91 49 47 1 
92 50 48 1 
93 50 47 1 
94 50 51 1 
95 51 82 1 
96 51 83 1 
97 52 66 1 
98 52 47 1 
99 52 80 1 
100 52 81 1 
101 53 47 1 
102 53 78 1 
103 53 79 1 
104 54 53 1 
105 54 76 1 
106 54 77 1 
107 55 54 1 
108 56 62 1 
109 57 56 2 
110 57 75 1 
111 58 60 2 
112 58 59 1 
113 58 74 1 
114 59 73 1 
115 60 51 1 
116 60 57 1 
117 61 65 2 
118 61 56 1 
119 61 72 1 
120 62 59 2 
121 63 62 1 
122 63 71 1 
123 64 63 2 
124 65 64 1 
125 66 55 1 
126 66 67 1 
127 66 68 1 
128 69 65 1 
129 70 64 1 
@<TRIPOS>SUBSTRUCTURE
1 CKW::FUZI_1 1 RESIDUE 1 CKW::A CKW::FUZI 1
