@<TRIPOS>MOLECULE
COMMON-LISP:NIL
119 129 1 0 0
POLYMER
CHARGES


@<TRIPOS>ATOM
1 C.b -1.06164 0.816183 0.0266868 C.3 1 FUZI_1    0.000
2 C_28893 -3.841 9.031 -0.376 C.3 1 FUZI_1    0.000
3 C_28894 -3.127 7.767 0.135 C.3 1 FUZI_1    0.000
4 C_28892 -4.600 8.551 -1.620 C.3 1 FUZI_1    0.000
5 N -3.110 6.805 -0.977 N.am 1 FUZI_1    0.000
6 O -5.130 6.919 -3.958 O.2 1 FUZI_1    0.000
7 C.e -3.681 7.443 -2.154 C.3 1 FUZI_1    0.000
8 O -2.229 5.099 0.140 O.2 1 FUZI_1    0.000
9 C_28904 -1.965 3.708 -2.370 C.3 1 FUZI_1    0.000
10 C_28901 -4.167 3.513 -1.327 C.3 1 FUZI_1    0.000
11 C.d -3.214 4.548 -1.997 C.3 1 FUZI_1    0.000
12 C_28918 -3.560 3.230 -6.490 C.3 1 FUZI_1    0.000
13 C.c -3.322 2.242 -1.087 C.3 1 FUZI_1    0.000
14 O 0.210 2.082 -1.607 O.2 1 FUZI_1    0.000
15 O -4.480 1.715 0.923 O.2 1 FUZI_1    0.000
16 N -1.954 2.555 -1.470 N.am 1 FUZI_1    0.000
17 C_28912 0.215 0.787 0.910 C.3 1 FUZI_1    0.000
18 C_28909 -1.083 -0.602 -0.602 C.3 1 FUZI_1    0.000
19 O -2.568 2.348 3.376 O.co2 1 FUZI_1    0.000
20 O -1.494 -3.334 0.109 O.2 1 FUZI_1    0.000
21 C_28900 -4.305 6.507 -3.164 C.2 1 FUZI_1    0.000
22 C_28897 -2.790 5.499 -0.864 C.2 1 FUZI_1    0.000
23 N.d -3.873 5.215 -3.172 N.am 1 FUZI_1    0.000
24 C.d2 -4.224 4.314 -4.305 C.3 1 FUZI_1    0.000
25 C_28917 -3.459 5.746 -6.311 C.3 1 FUZI_1    0.000
26 C_28916 -3.288 4.417 -5.542 C.3 1 FUZI_1    0.000
27 C_28908 -0.867 1.854 -1.090 C.2 1 FUZI_1    0.000
28 C_28905 -3.437 1.642 0.300 C.2 1 FUZI_1    0.000
29 N.b -2.330 1.033 0.814 N.am 1 FUZI_1    0.000
30 C.b2 -2.421 0.350 2.133 C.3 1 FUZI_1    0.000
31 OH -1.254 0.841 4.114 O.co2 1 FUZI_1    0.000
32 C_28922 -2.063 1.245 3.303 C.2 1 FUZI_1    0.000
33 C_28929 3.403 1.096 -2.658 C.2 1 FUZI_1    0.000
34 C.a2 1.095 -1.939 -0.864 C.3 1 FUZI_1    0.000
35 C_28931 1.669 -0.434 -2.757 C.2 1 FUZI_1    0.000
36 C_28927 2.940 -0.275 -0.845 C.2 1 FUZI_1    0.000
37 C_28926 1.920 -0.834 -1.506 C.2 1 FUZI_1    0.000
38 C_28935 4.139 2.062 -3.217 C.2 1 FUZI_1    0.000
39 C_28930 2.400 0.523 -3.328 C.2 1 FUZI_1    0.000
40 C_28928 3.677 0.691 -1.404 C.2 1 FUZI_1    0.000
41 C_28932 4.683 1.259 -0.730 C.2 1 FUZI_1    0.000
42 C_28933 5.411 2.222 -1.295 C.2 1 FUZI_1    0.000
43 C_28934 5.139 2.624 -2.537 C.2 1 FUZI_1    0.000
44 C.a -0.014 -1.470 0.135 C.3 1 FUZI_1    0.000
45 N 0.532 -0.617 1.191 N.am 1 FUZI_1    0.000
46 O 1.633 -0.241 3.078 O.2 1 FUZI_1    0.000
47 C_28938 0.908 -2.523 2.744 C.3 1 FUZI_1    0.000
48 C_28936 -0.606 -2.752 0.705 C.2 1 FUZI_1    0.000
49 C_28939 1.071 -1.043 2.353 C.2 1 FUZI_1    0.000
50 N.z -0.090 -3.246 1.871 N.am 1 FUZI_1    0.000
51 C.z2 -0.495 -4.607 2.327 C.3 1 FUZI_1    0.000
52 C_28975 0.453 -2.507 4.250 C.3 1 FUZI_1    0.000
53 C_28944 2.337 -3.148 2.611 C.3 1 FUZI_1    0.000
54 C_28945 2.677 -4.214 3.679 C.3 1 FUZI_1    0.000
55 NH 2.477 -3.724 5.073 N.2 1 FUZI_1    0.000
56 C_28979 -1.418 -7.331 -0.036 C.2 1 FUZI_1    0.000
57 C_28980 -1.493 -6.345 0.864 C.2 1 FUZI_1    0.000
58 C_28976 0.797 -6.125 0.840 C.2 1 FUZI_1    0.000
59 C_28977 0.886 -7.107 -0.057 C.2 1 FUZI_1    0.000
60 C_28943 -0.391 -5.731 1.308 C.2 1 FUZI_1    0.000
61 C_28984 -2.525 -7.938 -0.480 C.2 1 FUZI_1    0.000
62 C_28978 -0.216 -7.716 -0.503 C.2 1 FUZI_1    0.000
63 C_28981 -0.140 -8.701 -1.404 C.2 1 FUZI_1    0.000
64 C_28982 -1.248 -9.300 -1.840 C.2 1 FUZI_1    0.000
65 C_28983 -2.439 -8.919 -1.379 C.2 1 FUZI_1    0.000
66 C_28974 1.645 -2.500 5.233 C.3 1 FUZI_1    0.000
67 H_289741 2.272 -1.619 5.077 H 1 FUZI_1    0.000
68 H_289742 1.263 -2.471 6.257 H 1 FUZI_1    0.000
69 H_28983 -3.342 -9.409 -1.735 H 1 FUZI_1    0.000
70 H_28982 -1.180 -10.101 -2.573 H 1 FUZI_1    0.000
71 H_28981 0.826 -9.022 -1.789 H 1 FUZI_1    0.000
72 H_28984 -3.504 -7.637 -0.112 H 1 FUZI_1    0.000
73 H_28977 1.867 -7.407 -0.422 H 1 FUZI_1    0.000
74 H_28976 1.708 -5.649 1.188 H 1 FUZI_1    0.000
75 H_28980 -2.465 -6.032 1.240 H 1 FUZI_1    0.000
76 H_289451 2.080 -5.115 3.529 H 1 FUZI_1    0.000
77 H_289452 3.727 -4.496 3.565 H 1 FUZI_1    0.000
78 H_289441 3.097 -2.367 2.703 H 1 FUZI_1    0.000
79 H_289442 2.476 -3.570 1.615 H 1 FUZI_1    0.000
80 H_289751 -0.168 -3.361 4.516 H 1 FUZI_1    0.000
81 H_289752 -0.179 -1.638 4.442 H 1 FUZI_1    0.000
82 H.z21 -1.530 -4.531 2.673 H 1 FUZI_1    0.000
83 H.z22 0.094 -4.916 3.187 H 1 FUZI_1    0.000
84 H_28934 5.734 3.410 -2.996 H 1 FUZI_1    0.000
85 H_28933 6.227 2.681 -0.743 H 1 FUZI_1    0.000
86 H_28932 4.916 0.941 0.284 H 1 FUZI_1    0.000
87 H_28930 2.168 0.834 -4.345 H 1 FUZI_1    0.000
88 H_28935 3.929 2.399 -4.230 H 1 FUZI_1    0.000
89 H_28927 3.166 -0.607 0.166 H 1 FUZI_1    0.000
90 H_28931 0.857 -0.887 -3.322 H 1 FUZI_1    0.000
91 H.a21 0.630 -2.545 -1.646 H 1 FUZI_1    0.000
92 H.a22 1.778 -2.614 -0.345 H 1 FUZI_1    0.000
93 H.b21 -1.784 -0.533 2.168 H 1 FUZI_1    0.000
94 H.b22 -3.443 0.003 2.304 H 1 FUZI_1    0.000
95 H_28916 -2.247 4.354 -5.222 H 1 FUZI_1    0.000
96 H_289171 -3.130 6.592 -5.705 H 1 FUZI_1    0.000
97 H_289172 -4.502 5.901 -6.597 H 1 FUZI_1    0.000
98 H_289173 -2.853 5.741 -7.220 H 1 FUZI_1    0.000
99 H.d21 -5.254 4.509 -4.615 H 1 FUZI_1    0.000
100 H.d22 -4.196 3.277 -3.961 H 1 FUZI_1    0.000
101 H_289091 -0.881 -0.558 -1.674 H 1 FUZI_1    0.000
102 H_289092 -2.085 -1.028 -0.512 H 1 FUZI_1    0.000
103 H_289121 1.079 1.215 0.400 H 1 FUZI_1    0.000
104 H_289122 0.071 1.355 1.831 H 1 FUZI_1    0.000
105 H.c -3.668 1.463 -1.772 H 1 FUZI_1    0.000
106 H_289181 -2.892 3.265 -7.353 H 1 FUZI_1    0.000
107 H_289182 -4.591 3.250 -6.851 H 1 FUZI_1    0.000
108 H_289183 -3.393 2.282 -5.974 H 1 FUZI_1    0.000
109 H_289011 -5.023 3.261 -1.956 H 1 FUZI_1    0.000
110 H_289012 -4.581 3.909 -0.396 H 1 FUZI_1    0.000
111 H_289041 -2.018 3.312 -3.383 H 1 FUZI_1    0.000
112 H_289042 -1.049 4.297 -2.264 H 1 FUZI_1    0.000
113 H.e -2.846 7.915 -2.681 H 1 FUZI_1    0.000
114 H_288921 -5.568 8.133 -1.330 H 1 FUZI_1    0.000
115 H_288922 -4.754 9.352 -2.346 H 1 FUZI_1    0.000
116 H_288941 -2.107 7.999 0.455 H 1 FUZI_1    0.000
117 H_288942 -3.687 7.335 0.969 H 1 FUZI_1    0.000
118 H_288931 -3.100 9.782 -0.662 H 1 FUZI_1    0.000
119 H_288932 -4.510 9.459 0.375 H 1 FUZI_1    0.000
@<TRIPOS>BOND
1 1 29 1 
2 2 4 1 
3 2 118 1 
4 2 119 1 
5 3 2 1 
6 3 116 1 
7 3 117 1 
8 4 114 1 
9 4 115 1 
10 5 3 1 
11 7 5 1 
12 7 4 1 
13 7 113 1 
14 9 16 1 
15 9 111 1 
16 9 112 1 
17 10 11 1 
18 10 13 1 
19 10 109 1 
20 10 110 1 
21 11 22 1 
22 11 9 1 
23 12 26 1 
24 12 106 1 
25 12 107 1 
26 12 108 1 
27 13 105 1 
28 16 13 1 
29 17 45 1 
30 17 1 1 
31 17 103 1 
32 17 104 1 
33 18 1 1 
34 18 101 1 
35 18 102 1 
36 19 32 2 
37 21 23 1 
38 21 7 1 
39 21 6 2 
40 22 5 1 
41 22 8 2 
42 23 11 1 
43 23 24 1 
44 24 99 1 
45 24 100 1 
46 25 26 1 
47 25 96 1 
48 25 97 1 
49 25 98 1 
50 26 24 1 
51 26 95 1 
52 27 1 1 
53 27 16 1 
54 27 14 2 
55 28 13 1 
56 28 15 2 
57 29 28 1 
58 29 30 1 
59 30 93 1 
60 30 94 1 
61 31 32 1 
62 32 30 1 
63 33 40 2 
64 34 37 1 
65 34 91 1 
66 34 92 1 
67 35 39 2 
68 35 37 1 
69 35 90 1 
70 36 37 2 
71 36 89 1 
72 38 43 2 
73 38 33 1 
74 38 88 1 
75 39 33 1 
76 39 87 1 
77 40 36 1 
78 41 40 1 
79 41 86 1 
80 42 41 2 
81 42 85 1 
82 43 42 1 
83 43 84 1 
84 44 18 1 
85 44 34 1 
86 44 48 1 
87 45 44 1 
88 45 49 1 
89 46 49 2 
90 48 20 2 
91 49 47 1 
92 50 48 1 
93 50 47 1 
94 50 51 1 
95 51 82 1 
96 51 83 1 
97 52 66 1 
98 52 47 1 
99 52 80 1 
100 52 81 1 
101 53 47 1 
102 53 78 1 
103 53 79 1 
104 54 53 1 
105 54 76 1 
106 54 77 1 
107 55 54 1 
108 56 62 1 
109 57 56 2 
110 57 75 1 
111 58 60 2 
112 58 59 1 
113 58 74 1 
114 59 73 1 
115 60 51 1 
116 60 57 1 
117 61 65 2 
118 61 56 1 
119 61 72 1 
120 62 59 2 
121 63 62 1 
122 63 71 1 
123 64 63 2 
124 65 64 1 
125 66 55 1 
126 66 67 1 
127 66 68 1 
128 69 65 1 
129 70 64 1 
@<TRIPOS>SUBSTRUCTURE
1 CKW::FUZI_1 1 RESIDUE 1 CKW::A CKW::FUZI 1
