@<TRIPOS>MOLECULE
COMMON-LISP:NIL
119 129 1 0 0
POLYMER
CHARGES


@<TRIPOS>ATOM
1 C.b -2.08364 0.691659 -1.04983 C.3 1 FUZI_1    0.000
2 C_28893 4.176 6.396 -4.897 C.3 1 FUZI_1    0.000
3 C_28894 2.648 6.461 -4.741 C.3 1 FUZI_1    0.000
4 C_28892 4.658 5.869 -3.542 C.3 1 FUZI_1    0.000
5 N 2.294 5.536 -3.655 N.am 1 FUZI_1    0.000
6 O 4.405 4.809 -0.906 O.2 1 FUZI_1    0.000
7 C.e 3.505 4.952 -3.097 C.3 1 FUZI_1    0.000
8 O 0.091 5.756 -3.791 O.2 1 FUZI_1    0.000
9 C_28904 0.712 2.946 -2.463 C.3 1 FUZI_1    0.000
10 C_28901 -0.432 4.666 -1.231 C.3 1 FUZI_1    0.000
11 C.d 0.928 4.393 -1.953 C.3 1 FUZI_1    0.000
12 C_28918 2.464 3.080 2.564 C.3 1 FUZI_1    0.000
13 C.c -0.927 3.288 -0.751 C.3 1 FUZI_1    0.000
14 O -0.182 0.272 -2.518 O.2 1 FUZI_1    0.000
15 O -3.131 4.106 -0.351 O.2 1 FUZI_1    0.000
16 N -0.347 2.317 -1.665 N.am 1 FUZI_1    0.000
17 C_28912 -2.761 -0.500 -1.770 C.3 1 FUZI_1    0.000
18 C_28909 -1.695 0.028 0.289 C.3 1 FUZI_1    0.000
19 O -6.004 0.663 -2.006 O.co2 1 FUZI_1    0.000
20 O 0.562 -1.542 1.137 O.2 1 FUZI_1    0.000
21 C_28900 3.412 4.720 -1.604 C.2 1 FUZI_1    0.000
22 C_28897 1.048 5.284 -3.205 C.2 1 FUZI_1    0.000
23 N.d 2.176 4.445 -1.087 N.am 1 FUZI_1    0.000
24 C.d2 2.041 4.307 0.395 C.3 1 FUZI_1    0.000
25 C_28917 2.309 1.725 0.442 C.3 1 FUZI_1    0.000
26 C_28916 2.741 3.078 1.046 C.3 1 FUZI_1    0.000
27 C_28908 -0.786 1.049 -1.801 C.2 1 FUZI_1    0.000
28 C_28905 -2.431 3.146 -0.613 C.2 1 FUZI_1    0.000
29 N.b -2.948 1.899 -0.813 N.am 1 FUZI_1    0.000
30 C.b2 -4.396 1.646 -0.603 C.3 1 FUZI_1    0.000
31 OH -4.982 2.373 -2.767 O.co2 1 FUZI_1    0.000
32 C_28922 -5.195 1.562 -1.889 C.2 1 FUZI_1    0.000
33 C_28929 -6.532 -2.061 0.510 C.2 1 FUZI_1    0.000
34 C.a2 -2.360 -2.314 1.057 C.3 1 FUZI_1    0.000
35 C_28931 -4.609 -1.411 1.623 C.2 1 FUZI_1    0.000
36 C_28927 -4.481 -2.985 -0.051 C.2 1 FUZI_1    0.000
37 C_28926 -3.869 -2.229 0.868 C.2 1 FUZI_1    0.000
38 C_28935 -7.852 -1.973 0.315 C.2 1 FUZI_1    0.000
39 C_28930 -5.927 -1.323 1.445 C.2 1 FUZI_1    0.000
40 C_28928 -5.801 -2.903 -0.243 C.2 1 FUZI_1    0.000
41 C_28932 -6.403 -3.644 -1.179 C.2 1 FUZI_1    0.000
42 C_28933 -7.720 -3.550 -1.368 C.2 1 FUZI_1    0.000
43 C_28934 -8.444 -2.716 -0.622 C.2 1 FUZI_1    0.000
44 C.a -1.528 -1.500 0.012 C.3 1 FUZI_1    0.000
45 N -2.003 -1.692 -1.366 N.am 1 FUZI_1    0.000
46 O -2.107 -2.706 -3.325 O.2 1 FUZI_1    0.000
47 C_28938 -0.292 -3.421 -1.876 C.3 1 FUZI_1    0.000
48 C_28936 -0.072 -1.920 0.168 C.2 1 FUZI_1    0.000
49 C_28939 -1.546 -2.607 -2.251 C.2 1 FUZI_1    0.000
50 N.z 0.496 -2.715 -0.790 N.am 1 FUZI_1    0.000
51 C.z2 1.966 -2.972 -0.724 C.3 1 FUZI_1    0.000
52 C_28975 0.552 -3.686 -3.181 C.3 1 FUZI_1    0.000
53 C_28944 -0.765 -4.814 -1.351 C.3 1 FUZI_1    0.000
54 C_28945 -1.431 -5.693 -2.432 C.3 1 FUZI_1    0.000
55 NH -0.481 -5.921 -3.546 N.2 1 FUZI_1    0.000
56 C_28979 2.318 -5.940 1.493 C.2 1 FUZI_1    0.000
57 C_28980 1.964 -4.743 1.015 C.2 1 FUZI_1    0.000
58 C_28976 3.176 -5.131 -0.902 C.2 1 FUZI_1    0.000
59 C_28977 3.538 -6.327 -0.437 C.2 1 FUZI_1    0.000
60 C_28943 2.382 -4.330 -0.186 C.2 1 FUZI_1    0.000
61 C_28984 1.891 -6.352 2.692 C.2 1 FUZI_1    0.000
62 C_28978 3.113 -6.741 0.760 C.2 1 FUZI_1    0.000
63 C_28981 3.467 -7.940 1.237 C.2 1 FUZI_1    0.000
64 C_28982 3.036 -8.341 2.433 C.2 1 FUZI_1    0.000
65 C_28983 2.249 -7.548 3.160 C.2 1 FUZI_1    0.000
66 C_28974 -0.081 -4.658 -4.210 C.3 1 FUZI_1    0.000
67 H_289741 -0.943 -4.218 -4.712 H 1 FUZI_1    0.000
68 H_289742 0.662 -4.890 -4.977 H 1 FUZI_1    0.000
69 H_28983 1.898 -7.877 4.135 H 1 FUZI_1    0.000
70 H_28982 3.327 -9.316 2.816 H 1 FUZI_1    0.000
71 H_28981 4.109 -8.597 0.654 H 1 FUZI_1    0.000
72 H_28984 1.247 -5.715 3.297 H 1 FUZI_1    0.000
73 H_28977 4.183 -6.960 -1.042 H 1 FUZI_1    0.000
74 H_28976 3.535 -4.814 -1.879 H 1 FUZI_1    0.000
75 H_28980 1.320 -4.098 1.609 H 1 FUZI_1    0.000
76 H_289451 -1.699 -6.659 -1.995 H 1 FUZI_1    0.000
77 H_289452 -2.341 -5.221 -2.809 H 1 FUZI_1    0.000
78 H_289441 -1.468 -4.695 -0.530 H 1 FUZI_1    0.000
79 H_289442 0.082 -5.373 -0.954 H 1 FUZI_1    0.000
80 H_289751 1.499 -4.162 -2.933 H 1 FUZI_1    0.000
81 H_289752 0.789 -2.737 -3.669 H 1 FUZI_1    0.000
82 H.z21 2.435 -2.220 -0.086 H 1 FUZI_1    0.000
83 H.z22 2.417 -2.789 -1.701 H 1 FUZI_1    0.000
84 H_28934 -9.517 -2.641 -0.777 H 1 FUZI_1    0.000
85 H_28933 -8.204 -4.155 -2.131 H 1 FUZI_1    0.000
86 H_28932 -5.825 -4.329 -1.797 H 1 FUZI_1    0.000
87 H_28930 -6.503 -0.641 2.067 H 1 FUZI_1    0.000
88 H_28935 -8.455 -1.296 0.917 H 1 FUZI_1    0.000
89 H_28927 -3.891 -3.666 -0.661 H 1 FUZI_1    0.000
90 H_28931 -4.138 -0.797 2.386 H 1 FUZI_1    0.000
91 H.a21 -2.095 -1.976 2.063 H 1 FUZI_1    0.000
92 H.a22 -2.067 -3.363 1.030 H 1 FUZI_1    0.000
93 H.b21 -4.843 2.443 -0.005 H 1 FUZI_1    0.000
94 H.b22 -4.536 0.715 -0.052 H 1 FUZI_1    0.000
95 H_28916 3.821 3.167 0.914 H 1 FUZI_1    0.000
96 H_289171 2.795 0.901 0.968 H 1 FUZI_1    0.000
97 H_289172 2.600 1.657 -0.606 H 1 FUZI_1    0.000
98 H_289173 1.232 1.588 0.525 H 1 FUZI_1    0.000
99 H.d21 1.007 4.296 0.718 H 1 FUZI_1    0.000
100 H.d22 2.475 5.208 0.838 H 1 FUZI_1    0.000
101 H_289091 -2.484 0.201 1.022 H 1 FUZI_1    0.000
102 H_289092 -0.799 0.490 0.705 H 1 FUZI_1    0.000
103 H_289121 -3.790 -0.660 -1.452 H 1 FUZI_1    0.000
104 H_289122 -2.745 -0.353 -2.854 H 1 FUZI_1    0.000
105 H.c -0.530 3.069 0.242 H 1 FUZI_1    0.000
106 H_289181 2.992 2.258 3.053 H 1 FUZI_1    0.000
107 H_289182 1.395 2.970 2.764 H 1 FUZI_1    0.000
108 H_289183 2.804 4.015 3.014 H 1 FUZI_1    0.000
109 H_289011 -1.183 5.043 -1.927 H 1 FUZI_1    0.000
110 H_289012 -0.360 5.402 -0.428 H 1 FUZI_1    0.000
111 H_289041 0.371 2.958 -3.502 H 1 FUZI_1    0.000
112 H_289042 1.633 2.363 -2.413 H 1 FUZI_1    0.000
113 H.e 3.631 3.968 -3.556 H 1 FUZI_1    0.000
114 H_288921 5.608 5.335 -3.618 H 1 FUZI_1    0.000
115 H_288922 4.770 6.705 -2.846 H 1 FUZI_1    0.000
116 H_288941 2.345 7.471 -4.455 H 1 FUZI_1    0.000
117 H_288942 2.150 6.173 -5.671 H 1 FUZI_1    0.000
118 H_288931 4.609 7.369 -5.143 H 1 FUZI_1    0.000
119 H_288932 4.435 5.682 -5.684 H 1 FUZI_1    0.000
@<TRIPOS>BOND
1 1 29 1 
2 2 4 1 
3 2 118 1 
4 2 119 1 
5 3 2 1 
6 3 116 1 
7 3 117 1 
8 4 114 1 
9 4 115 1 
10 5 3 1 
11 7 5 1 
12 7 4 1 
13 7 113 1 
14 9 16 1 
15 9 111 1 
16 9 112 1 
17 10 11 1 
18 10 13 1 
19 10 109 1 
20 10 110 1 
21 11 22 1 
22 11 9 1 
23 12 26 1 
24 12 106 1 
25 12 107 1 
26 12 108 1 
27 13 105 1 
28 16 13 1 
29 17 45 1 
30 17 1 1 
31 17 103 1 
32 17 104 1 
33 18 1 1 
34 18 101 1 
35 18 102 1 
36 19 32 2 
37 21 23 1 
38 21 7 1 
39 21 6 2 
40 22 5 1 
41 22 8 2 
42 23 11 1 
43 23 24 1 
44 24 99 1 
45 24 100 1 
46 25 26 1 
47 25 96 1 
48 25 97 1 
49 25 98 1 
50 26 24 1 
51 26 95 1 
52 27 1 1 
53 27 16 1 
54 27 14 2 
55 28 13 1 
56 28 15 2 
57 29 28 1 
58 29 30 1 
59 30 93 1 
60 30 94 1 
61 31 32 1 
62 32 30 1 
63 33 40 2 
64 34 37 1 
65 34 91 1 
66 34 92 1 
67 35 39 2 
68 35 37 1 
69 35 90 1 
70 36 37 2 
71 36 89 1 
72 38 43 2 
73 38 33 1 
74 38 88 1 
75 39 33 1 
76 39 87 1 
77 40 36 1 
78 41 40 1 
79 41 86 1 
80 42 41 2 
81 42 85 1 
82 43 42 1 
83 43 84 1 
84 44 18 1 
85 44 34 1 
86 44 48 1 
87 45 44 1 
88 45 49 1 
89 46 49 2 
90 48 20 2 
91 49 47 1 
92 50 48 1 
93 50 47 1 
94 50 51 1 
95 51 82 1 
96 51 83 1 
97 52 66 1 
98 52 47 1 
99 52 80 1 
100 52 81 1 
101 53 47 1 
102 53 78 1 
103 53 79 1 
104 54 53 1 
105 54 76 1 
106 54 77 1 
107 55 54 1 
108 56 62 1 
109 57 56 2 
110 57 75 1 
111 58 60 2 
112 58 59 1 
113 58 74 1 
114 59 73 1 
115 60 51 1 
116 60 57 1 
117 61 65 2 
118 61 56 1 
119 61 72 1 
120 62 59 2 
121 63 62 1 
122 63 71 1 
123 64 63 2 
124 65 64 1 
125 66 55 1 
126 66 67 1 
127 66 68 1 
128 69 65 1 
129 70 64 1 
@<TRIPOS>SUBSTRUCTURE
1 CKW::FUZI_1 1 RESIDUE 1 CKW::A CKW::FUZI 1
