@<TRIPOS>MOLECULE
COMMON-LISP:NIL
119 129 1 0 0
POLYMER
CHARGES


@<TRIPOS>ATOM
1 C.b -0.093713 1.28006 -0.692479 C.3 1 FUZI_1    0.000
2 C_28893 -7.881 -2.077 2.262 C.3 1 FUZI_1    0.000
3 C_28894 -6.438 -1.614 2.521 C.3 1 FUZI_1    0.000
4 C_28892 -8.443 -1.015 1.308 C.3 1 FUZI_1    0.000
5 N -6.075 -0.722 1.412 N.am 1 FUZI_1    0.000
6 O -8.372 1.141 -0.625 O.2 1 FUZI_1    0.000
7 C.e -7.205 -0.589 0.501 C.3 1 FUZI_1    0.000
8 O -3.972 -0.319 2.018 O.2 1 FUZI_1    0.000
9 C_28904 -3.687 1.984 0.502 C.3 1 FUZI_1    0.000
10 C_28901 -4.244 0.307 -1.108 C.3 1 FUZI_1    0.000
11 C.d -4.833 0.984 0.151 C.3 1 FUZI_1    0.000
12 C_28918 -8.174 3.973 0.527 C.3 1 FUZI_1    0.000
13 C.c -2.731 0.252 -0.844 C.3 1 FUZI_1    0.000
14 O -1.029 2.940 0.820 O.2 1 FUZI_1    0.000
15 O -2.274 -0.320 -3.117 O.2 1 FUZI_1    0.000
16 N -2.436 1.420 -0.017 N.am 1 FUZI_1    0.000
17 C_28912 1.202 2.140 -0.754 C.3 1 FUZI_1    0.000
18 C_28909 0.433 0.099 0.161 C.3 1 FUZI_1    0.000
19 O -1.544 2.690 -3.996 O.co2 1 FUZI_1    0.000
20 O 2.218 -1.442 1.757 O.2 1 FUZI_1    0.000
21 C_28900 -7.314 0.777 -0.147 C.2 1 FUZI_1    0.000
22 C_28897 -4.899 -0.076 1.267 C.2 1 FUZI_1    0.000
23 N.d -6.192 1.557 -0.164 N.am 1 FUZI_1    0.000
24 C.d2 -6.238 2.905 -0.800 C.3 1 FUZI_1    0.000
25 C_28917 -5.815 4.283 1.367 C.3 1 FUZI_1    0.000
26 C_28916 -6.691 4.087 0.110 C.3 1 FUZI_1    0.000
27 C_28908 -1.205 1.964 0.115 C.2 1 FUZI_1    0.000
28 C_28905 -1.866 0.189 -2.090 C.2 1 FUZI_1    0.000
29 N.b -0.643 0.789 -2.008 N.am 1 FUZI_1    0.000
30 C.b2 0.081 1.149 -3.255 C.3 1 FUZI_1    0.000
31 OH 0.491 3.313 -4.078 O.co2 1 FUZI_1    0.000
32 C_28922 -0.359 2.483 -3.827 C.2 1 FUZI_1    0.000
33 C_28929 0.743 -5.007 -0.761 C.2 1 FUZI_1    0.000
34 C.a2 2.148 -1.080 -1.372 C.3 1 FUZI_1    0.000
35 C_28931 2.418 -3.420 -0.572 C.2 1 FUZI_1    0.000
36 C_28927 0.411 -2.850 -1.539 C.2 1 FUZI_1    0.000
37 C_28926 1.637 -2.495 -1.140 C.2 1 FUZI_1    0.000
38 C_28935 0.286 -6.250 -0.570 C.2 1 FUZI_1    0.000
39 C_28930 1.976 -4.663 -0.379 C.2 1 FUZI_1    0.000
40 C_28928 -0.047 -4.091 -1.349 C.2 1 FUZI_1    0.000
41 C_28932 -1.280 -4.431 -1.738 C.2 1 FUZI_1    0.000
42 C_28933 -1.728 -5.671 -1.542 C.2 1 FUZI_1    0.000
43 C_28934 -0.946 -6.580 -0.959 C.2 1 FUZI_1    0.000
44 C.a 1.934 -0.087 -0.180 C.3 1 FUZI_1    0.000
45 N 2.370 1.261 -0.558 N.am 1 FUZI_1    0.000
46 O 3.884 2.823 -0.933 O.2 1 FUZI_1    0.000
47 C_28938 4.637 0.961 0.432 C.3 1 FUZI_1    0.000
48 C_28936 2.711 -0.609 1.017 C.2 1 FUZI_1    0.000
49 C_28939 3.624 1.749 -0.425 C.2 1 FUZI_1    0.000
50 N.z 3.966 -0.123 1.239 N.am 1 FUZI_1    0.000
51 C.z2 4.793 -0.764 2.297 C.3 1 FUZI_1    0.000
52 C_28975 5.350 2.005 1.376 C.3 1 FUZI_1    0.000
53 C_28944 5.689 0.313 -0.526 C.3 1 FUZI_1    0.000
54 C_28945 6.662 1.328 -1.165 C.3 1 FUZI_1    0.000
55 NH 7.348 2.096 -0.100 N.2 1 FUZI_1    0.000
56 C_28979 3.382 0.858 5.363 C.2 1 FUZI_1    0.000
57 C_28980 3.643 0.580 4.081 C.2 1 FUZI_1    0.000
58 C_28976 5.039 -1.133 4.720 C.2 1 FUZI_1    0.000
59 C_28977 4.788 -0.867 6.001 C.2 1 FUZI_1    0.000
60 C_28943 4.472 -0.417 3.744 C.2 1 FUZI_1    0.000
61 C_28984 2.552 1.854 5.691 C.2 1 FUZI_1    0.000
62 C_28978 3.960 0.127 6.333 C.2 1 FUZI_1    0.000
63 C_28981 3.699 0.404 7.616 C.2 1 FUZI_1    0.000
64 C_28982 2.870 1.399 7.933 C.2 1 FUZI_1    0.000
65 C_28983 2.298 2.124 6.972 C.2 1 FUZI_1    0.000
66 C_28974 6.395 2.915 0.685 C.3 1 FUZI_1    0.000
67 H_289741 5.919 3.647 0.031 H 1 FUZI_1    0.000
68 H_289742 6.951 3.463 1.450 H 1 FUZI_1    0.000
69 H_28983 1.622 2.935 7.232 H 1 FUZI_1    0.000
70 H_28982 2.662 1.620 8.977 H 1 FUZI_1    0.000
71 H_28981 4.160 -0.179 8.411 H 1 FUZI_1    0.000
72 H_28984 2.077 2.454 4.917 H 1 FUZI_1    0.000
73 H_28977 5.265 -1.468 6.773 H 1 FUZI_1    0.000
74 H_28976 5.716 -1.947 4.470 H 1 FUZI_1    0.000
75 H_28980 3.168 1.180 3.308 H 1 FUZI_1    0.000
76 H_289451 7.411 0.791 -1.753 H 1 FUZI_1    0.000
77 H_289452 6.127 2.011 -1.829 H 1 FUZI_1    0.000
78 H_289441 5.187 -0.232 -1.324 H 1 FUZI_1    0.000
79 H_289442 6.292 -0.421 0.012 H 1 FUZI_1    0.000
80 H_289751 5.894 1.515 2.182 H 1 FUZI_1    0.000
81 H_289752 4.598 2.631 1.862 H 1 FUZI_1    0.000
82 H.z21 5.852 -0.570 2.121 H 1 FUZI_1    0.000
83 H.z22 4.681 -1.846 2.179 H 1 FUZI_1    0.000
84 H_28934 -1.313 -7.591 -0.802 H 1 FUZI_1    0.000
85 H_28933 -2.732 -5.942 -1.859 H 1 FUZI_1    0.000
86 H_28932 -1.930 -3.699 -2.214 H 1 FUZI_1    0.000
87 H_28930 2.631 -5.393 0.093 H 1 FUZI_1    0.000
88 H_28935 0.914 -7.002 -0.096 H 1 FUZI_1    0.000
89 H_28927 -0.226 -2.112 -2.021 H 1 FUZI_1    0.000
90 H_28931 3.427 -3.162 -0.257 H 1 FUZI_1    0.000
91 H.a21 3.211 -1.134 -1.602 H 1 FUZI_1    0.000
92 H.a22 1.689 -0.695 -2.277 H 1 FUZI_1    0.000
93 H.b21 -0.107 0.395 -4.024 H 1 FUZI_1    0.000
94 H.b22 1.160 1.188 -3.102 H 1 FUZI_1    0.000
95 H_28916 -6.603 4.997 -0.489 H 1 FUZI_1    0.000
96 H_289171 -4.792 4.542 1.090 H 1 FUZI_1    0.000
97 H_289172 -5.803 3.382 1.984 H 1 FUZI_1    0.000
98 H_289173 -6.202 5.104 1.975 H 1 FUZI_1    0.000
99 H.d21 -6.931 2.856 -1.644 H 1 FUZI_1    0.000
100 H.d22 -5.276 3.145 -1.254 H 1 FUZI_1    0.000
101 H_289091 -0.156 -0.809 0.040 H 1 FUZI_1    0.000
102 H_289092 0.356 0.378 1.216 H 1 FUZI_1    0.000
103 H_289121 1.293 2.721 -1.671 H 1 FUZI_1    0.000
104 H_289122 1.224 2.851 0.076 H 1 FUZI_1    0.000
105 H.c -2.498 -0.640 -0.256 H 1 FUZI_1    0.000
106 H_289181 -8.813 3.846 -0.349 H 1 FUZI_1    0.000
107 H_289182 -8.494 4.880 1.045 H 1 FUZI_1    0.000
108 H_289183 -8.329 3.129 1.203 H 1 FUZI_1    0.000
109 H_289011 -4.440 0.926 -1.989 H 1 FUZI_1    0.000
110 H_289012 -4.662 -0.687 -1.287 H 1 FUZI_1    0.000
111 H_289041 -3.798 2.948 0.011 H 1 FUZI_1    0.000
112 H_289042 -3.616 2.150 1.580 H 1 FUZI_1    0.000
113 H.e -7.047 -1.303 -0.313 H 1 FUZI_1    0.000
114 H_288921 -9.239 -1.409 0.672 H 1 FUZI_1    0.000
115 H_288922 -8.827 -0.170 1.884 H 1 FUZI_1    0.000
116 H_288941 -6.388 -1.050 3.456 H 1 FUZI_1    0.000
117 H_288942 -5.757 -2.469 2.566 H 1 FUZI_1    0.000
118 H_288931 -8.462 -2.154 3.184 H 1 FUZI_1    0.000
119 H_288932 -7.871 -3.050 1.765 H 1 FUZI_1    0.000
@<TRIPOS>BOND
1 1 29 1 
2 2 4 1 
3 2 118 1 
4 2 119 1 
5 3 2 1 
6 3 116 1 
7 3 117 1 
8 4 114 1 
9 4 115 1 
10 5 3 1 
11 7 5 1 
12 7 4 1 
13 7 113 1 
14 9 16 1 
15 9 111 1 
16 9 112 1 
17 10 11 1 
18 10 13 1 
19 10 109 1 
20 10 110 1 
21 11 22 1 
22 11 9 1 
23 12 26 1 
24 12 106 1 
25 12 107 1 
26 12 108 1 
27 13 105 1 
28 16 13 1 
29 17 45 1 
30 17 1 1 
31 17 103 1 
32 17 104 1 
33 18 1 1 
34 18 101 1 
35 18 102 1 
36 19 32 2 
37 21 23 1 
38 21 7 1 
39 21 6 2 
40 22 5 1 
41 22 8 2 
42 23 11 1 
43 23 24 1 
44 24 99 1 
45 24 100 1 
46 25 26 1 
47 25 96 1 
48 25 97 1 
49 25 98 1 
50 26 24 1 
51 26 95 1 
52 27 1 1 
53 27 16 1 
54 27 14 2 
55 28 13 1 
56 28 15 2 
57 29 28 1 
58 29 30 1 
59 30 93 1 
60 30 94 1 
61 31 32 1 
62 32 30 1 
63 33 40 2 
64 34 37 1 
65 34 91 1 
66 34 92 1 
67 35 39 2 
68 35 37 1 
69 35 90 1 
70 36 37 2 
71 36 89 1 
72 38 43 2 
73 38 33 1 
74 38 88 1 
75 39 33 1 
76 39 87 1 
77 40 36 1 
78 41 40 1 
79 41 86 1 
80 42 41 2 
81 42 85 1 
82 43 42 1 
83 43 84 1 
84 44 18 1 
85 44 34 1 
86 44 48 1 
87 45 44 1 
88 45 49 1 
89 46 49 2 
90 48 20 2 
91 49 47 1 
92 50 48 1 
93 50 47 1 
94 50 51 1 
95 51 82 1 
96 51 83 1 
97 52 66 1 
98 52 47 1 
99 52 80 1 
100 52 81 1 
101 53 47 1 
102 53 78 1 
103 53 79 1 
104 54 53 1 
105 54 76 1 
106 54 77 1 
107 55 54 1 
108 56 62 1 
109 57 56 2 
110 57 75 1 
111 58 60 2 
112 58 59 1 
113 58 74 1 
114 59 73 1 
115 60 51 1 
116 60 57 1 
117 61 65 2 
118 61 56 1 
119 61 72 1 
120 62 59 2 
121 63 62 1 
122 63 71 1 
123 64 63 2 
124 65 64 1 
125 66 55 1 
126 66 67 1 
127 66 68 1 
128 69 65 1 
129 70 64 1 
@<TRIPOS>SUBSTRUCTURE
1 CKW::FUZI_1 1 RESIDUE 1 CKW::A CKW::FUZI 1
