@<TRIPOS>MOLECULE
COMMON-LISP:NIL
119 129 1 0 0
POLYMER
CHARGES


@<TRIPOS>ATOM
1 C.b -1.59514 -0.858555 0.294099 C.3 1 FUZI_1    0.000
2 C_28893 -4.215 4.941 6.820 C.3 1 FUZI_1    0.000
3 C_28894 -3.135 3.959 6.338 C.3 1 FUZI_1    0.000
4 C_28892 -4.544 5.765 5.569 C.3 1 FUZI_1    0.000
5 N -3.280 3.855 4.881 N.am 1 FUZI_1    0.000
6 O -4.471 6.484 2.795 O.2 1 FUZI_1    0.000
7 C.e -4.332 4.759 4.424 C.3 1 FUZI_1    0.000
8 O -1.706 2.318 4.519 O.2 1 FUZI_1    0.000
9 C_28904 -1.547 2.704 1.772 C.3 1 FUZI_1    0.000
10 C_28901 -3.878 2.262 2.168 C.3 1 FUZI_1    0.000
11 C.d -2.773 3.276 2.553 C.3 1 FUZI_1    0.000
12 C_28918 -3.015 3.929 -1.123 C.3 1 FUZI_1    0.000
13 C.c -3.133 0.932 1.975 C.3 1 FUZI_1    0.000
14 O 0.154 0.804 0.571 O.2 1 FUZI_1    0.000
15 O -5.071 -0.162 1.144 O.2 1 FUZI_1    0.000
16 N -1.808 1.287 1.495 N.am 1 FUZI_1    0.000
17 C_28912 -1.023 -1.968 1.194 C.3 1 FUZI_1    0.000
18 C_28909 -0.938 -1.180 -1.084 C.3 1 FUZI_1    0.000
19 O -4.592 -0.428 -2.005 O.co2 1 FUZI_1    0.000
20 O 1.575 -1.046 -2.466 O.2 1 FUZI_1    0.000
21 C_28900 -4.032 5.384 3.075 C.2 1 FUZI_1    0.000
22 C_28897 -2.529 3.090 4.060 C.2 1 FUZI_1    0.000
23 N.d -3.218 4.682 2.229 N.am 1 FUZI_1    0.000
24 C.d2 -2.660 5.360 1.019 C.3 1 FUZI_1    0.000
25 C_28917 -4.953 5.295 -0.193 C.3 1 FUZI_1    0.000
26 C_28916 -3.417 5.194 -0.334 C.3 1 FUZI_1    0.000
27 C_28908 -0.994 0.467 0.799 C.2 1 FUZI_1    0.000
28 C_28905 -3.857 -0.081 1.115 C.2 1 FUZI_1    0.000
29 N.b -3.098 -0.882 0.314 N.am 1 FUZI_1    0.000
30 C.b2 -3.747 -1.988 -0.437 C.3 1 FUZI_1    0.000
31 OH -4.321 -2.433 -2.669 O.co2 1 FUZI_1    0.000
32 C_28922 -4.273 -1.583 -1.803 C.2 1 FUZI_1    0.000
33 C_28929 0.574 -3.899 -5.566 C.2 1 FUZI_1    0.000
34 C.a2 -0.001 -3.545 -1.406 C.3 1 FUZI_1    0.000
35 C_28931 1.392 -4.012 -3.405 C.2 1 FUZI_1    0.000
36 C_28927 -0.810 -3.452 -3.760 C.2 1 FUZI_1    0.000
37 C_28926 0.200 -3.662 -2.910 C.2 1 FUZI_1    0.000
38 C_28935 0.750 -4.009 -6.887 C.2 1 FUZI_1    0.000
39 C_28930 1.581 -4.126 -4.719 C.2 1 FUZI_1    0.000
40 C_28928 -0.635 -3.562 -5.081 C.2 1 FUZI_1    0.000
41 C_28932 -1.648 -3.340 -5.926 C.2 1 FUZI_1    0.000
42 C_28933 -1.463 -3.451 -7.242 C.2 1 FUZI_1    0.000
43 C_28934 -0.265 -3.785 -7.722 C.2 1 FUZI_1    0.000
44 C.a 0.273 -2.127 -0.800 C.3 1 FUZI_1    0.000
45 N 0.308 -2.262 0.657 N.am 1 FUZI_1    0.000
46 O 1.275 -2.710 2.597 O.2 1 FUZI_1    0.000
47 C_28938 2.794 -2.284 0.748 C.3 1 FUZI_1    0.000
48 C_28936 1.568 -1.532 -1.348 C.2 1 FUZI_1    0.000
49 C_28939 1.410 -2.454 1.414 C.2 1 FUZI_1    0.000
50 N.z 2.691 -1.528 -0.564 N.am 1 FUZI_1    0.000
51 C.z2 3.921 -0.846 -1.077 C.3 1 FUZI_1    0.000
52 C_28975 3.337 -3.723 0.459 C.3 1 FUZI_1    0.000
53 C_28944 3.734 -1.608 1.830 C.3 1 FUZI_1    0.000
54 C_28945 4.750 -2.572 2.491 C.3 1 FUZI_1    0.000
55 NH 4.108 -3.856 2.865 N.2 1 FUZI_1    0.000
56 C_28979 5.976 -3.346 -2.896 C.2 1 FUZI_1    0.000
57 C_28980 4.966 -2.550 -2.531 C.2 1 FUZI_1    0.000
58 C_28976 6.234 -1.703 -0.805 C.2 1 FUZI_1    0.000
59 C_28977 7.249 -2.492 -1.159 C.2 1 FUZI_1    0.000
60 C_28943 5.083 -1.729 -1.483 C.2 1 FUZI_1    0.000
61 C_28984 5.853 -4.172 -3.941 C.2 1 FUZI_1    0.000
62 C_28978 7.129 -3.318 -2.202 C.2 1 FUZI_1    0.000
63 C_28981 8.140 -4.116 -2.565 C.2 1 FUZI_1    0.000
64 C_28982 8.008 -4.936 -3.608 C.2 1 FUZI_1    0.000
65 C_28983 6.866 -4.964 -4.295 C.2 1 FUZI_1    0.000
66 C_28974 3.493 -4.597 1.728 C.3 1 FUZI_1    0.000
67 H_289741 2.511 -4.959 2.042 H 1 FUZI_1    0.000
68 H_289742 4.113 -5.466 1.492 H 1 FUZI_1    0.000
69 H_28983 6.760 -5.633 -5.146 H 1 FUZI_1    0.000
70 H_28982 8.832 -5.582 -3.899 H 1 FUZI_1    0.000
71 H_28981 9.078 -4.103 -2.013 H 1 FUZI_1    0.000
72 H_28984 4.928 -4.205 -4.511 H 1 FUZI_1    0.000
73 H_28977 8.175 -2.455 -0.588 H 1 FUZI_1    0.000
74 H_28976 6.350 -1.039 0.048 H 1 FUZI_1    0.000
75 H_28980 4.033 -2.570 -3.090 H 1 FUZI_1    0.000
76 H_289451 5.572 -2.776 1.799 H 1 FUZI_1    0.000
77 H_289452 5.167 -2.104 3.386 H 1 FUZI_1    0.000
78 H_289441 3.138 -1.140 2.617 H 1 FUZI_1    0.000
79 H_289442 4.320 -0.782 1.447 H 1 FUZI_1    0.000
80 H_289751 4.317 -3.671 -0.012 H 1 FUZI_1    0.000
81 H_289752 2.698 -4.244 -0.251 H 1 FUZI_1    0.000
82 H.z21 4.249 -0.079 -0.377 H 1 FUZI_1    0.000
83 H.z22 3.669 -0.261 -1.964 H 1 FUZI_1    0.000
84 H_28934 -0.117 -3.875 -8.795 H 1 FUZI_1    0.000
85 H_28933 -2.291 -3.269 -7.923 H 1 FUZI_1    0.000
86 H_28932 -2.632 -3.067 -5.548 H 1 FUZI_1    0.000
87 H_28930 2.563 -4.406 -5.094 H 1 FUZI_1    0.000
88 H_28935 1.722 -4.282 -7.293 H 1 FUZI_1    0.000
89 H_28927 -1.791 -3.190 -3.372 H 1 FUZI_1    0.000
90 H_28931 2.225 -4.203 -2.732 H 1 FUZI_1    0.000
91 H.a21 -1.017 -3.858 -1.152 H 1 FUZI_1    0.000
92 H.a22 0.639 -4.279 -0.916 H 1 FUZI_1    0.000
93 H.b21 -4.598 -2.372 0.132 H 1 FUZI_1    0.000
94 H.b22 -3.052 -2.818 -0.578 H 1 FUZI_1    0.000
95 H_28916 -3.107 6.038 -0.955 H 1 FUZI_1    0.000
96 H_289171 -5.353 4.491 0.427 H 1 FUZI_1    0.000
97 H_289172 -5.429 5.235 -1.174 H 1 FUZI_1    0.000
98 H_289173 -5.235 6.251 0.253 H 1 FUZI_1    0.000
99 H.d21 -1.604 5.121 0.891 H 1 FUZI_1    0.000
100 H.d22 -2.654 6.432 1.229 H 1 FUZI_1    0.000
101 H_289091 -0.637 -0.256 -1.584 H 1 FUZI_1    0.000
102 H_289092 -1.624 -1.651 -1.780 H 1 FUZI_1    0.000
103 H_289121 -0.974 -1.635 2.234 H 1 FUZI_1    0.000
104 H_289122 -1.628 -2.877 1.136 H 1 FUZI_1    0.000
105 H.c -3.001 0.454 2.949 H 1 FUZI_1    0.000
106 H_289181 -3.306 3.014 -0.610 H 1 FUZI_1    0.000
107 H_289182 -1.935 3.907 -1.285 H 1 FUZI_1    0.000
108 H_289183 -3.495 3.927 -2.104 H 1 FUZI_1    0.000
109 H_289011 -4.362 2.552 1.236 H 1 FUZI_1    0.000
110 H_289012 -4.657 2.176 2.930 H 1 FUZI_1    0.000
111 H_289041 -1.407 3.167 0.801 H 1 FUZI_1    0.000
112 H_289042 -0.619 2.821 2.339 H 1 FUZI_1    0.000
113 H.e -5.241 4.164 4.298 H 1 FUZI_1    0.000
114 H_288921 -5.561 6.163 5.590 H 1 FUZI_1    0.000
115 H_288922 -3.835 6.593 5.482 H 1 FUZI_1    0.000
116 H_288941 -2.141 4.354 6.565 H 1 FUZI_1    0.000
117 H_288942 -3.262 2.980 6.809 H 1 FUZI_1    0.000
118 H_288931 -3.868 5.564 7.647 H 1 FUZI_1    0.000
119 H_288932 -5.101 4.386 7.138 H 1 FUZI_1    0.000
@<TRIPOS>BOND
1 1 29 1 
2 2 4 1 
3 2 118 1 
4 2 119 1 
5 3 2 1 
6 3 116 1 
7 3 117 1 
8 4 114 1 
9 4 115 1 
10 5 3 1 
11 7 5 1 
12 7 4 1 
13 7 113 1 
14 9 16 1 
15 9 111 1 
16 9 112 1 
17 10 11 1 
18 10 13 1 
19 10 109 1 
20 10 110 1 
21 11 22 1 
22 11 9 1 
23 12 26 1 
24 12 106 1 
25 12 107 1 
26 12 108 1 
27 13 105 1 
28 16 13 1 
29 17 45 1 
30 17 1 1 
31 17 103 1 
32 17 104 1 
33 18 1 1 
34 18 101 1 
35 18 102 1 
36 19 32 2 
37 21 23 1 
38 21 7 1 
39 21 6 2 
40 22 5 1 
41 22 8 2 
42 23 11 1 
43 23 24 1 
44 24 99 1 
45 24 100 1 
46 25 26 1 
47 25 96 1 
48 25 97 1 
49 25 98 1 
50 26 24 1 
51 26 95 1 
52 27 1 1 
53 27 16 1 
54 27 14 2 
55 28 13 1 
56 28 15 2 
57 29 28 1 
58 29 30 1 
59 30 93 1 
60 30 94 1 
61 31 32 1 
62 32 30 1 
63 33 40 2 
64 34 37 1 
65 34 91 1 
66 34 92 1 
67 35 39 2 
68 35 37 1 
69 35 90 1 
70 36 37 2 
71 36 89 1 
72 38 43 2 
73 38 33 1 
74 38 88 1 
75 39 33 1 
76 39 87 1 
77 40 36 1 
78 41 40 1 
79 41 86 1 
80 42 41 2 
81 42 85 1 
82 43 42 1 
83 43 84 1 
84 44 18 1 
85 44 34 1 
86 44 48 1 
87 45 44 1 
88 45 49 1 
89 46 49 2 
90 48 20 2 
91 49 47 1 
92 50 48 1 
93 50 47 1 
94 50 51 1 
95 51 82 1 
96 51 83 1 
97 52 66 1 
98 52 47 1 
99 52 80 1 
100 52 81 1 
101 53 47 1 
102 53 78 1 
103 53 79 1 
104 54 53 1 
105 54 76 1 
106 54 77 1 
107 55 54 1 
108 56 62 1 
109 57 56 2 
110 57 75 1 
111 58 60 2 
112 58 59 1 
113 58 74 1 
114 59 73 1 
115 60 51 1 
116 60 57 1 
117 61 65 2 
118 61 56 1 
119 61 72 1 
120 62 59 2 
121 63 62 1 
122 63 71 1 
123 64 63 2 
124 65 64 1 
125 66 55 1 
126 66 67 1 
127 66 68 1 
128 69 65 1 
129 70 64 1 
@<TRIPOS>SUBSTRUCTURE
1 CKW::FUZI_1 1 RESIDUE 1 CKW::A CKW::FUZI 1
