@<TRIPOS>MOLECULE
COMMON-LISP:NIL
119 129 1 0 0
POLYMER
CHARGES


@<TRIPOS>ATOM
1 C.b -0.0641771 -0.869636 2.0367 C.3 1 FUZI_1    0.000
2 C_28893 4.838 -8.988 2.968 C.3 1 FUZI_1    0.000
3 C_28894 3.954 -8.388 1.862 C.3 1 FUZI_1    0.000
4 C_28892 4.422 -8.221 4.229 C.3 1 FUZI_1    0.000
5 N 3.468 -7.093 2.359 N.am 1 FUZI_1    0.000
6 O 3.315 -6.071 5.790 O.2 1 FUZI_1    0.000
7 C.e 4.040 -6.842 3.671 C.3 1 FUZI_1    0.000
8 O 2.303 -6.508 0.562 O.2 1 FUZI_1    0.000
9 C_28904 2.411 -3.822 1.854 C.3 1 FUZI_1    0.000
10 C_28901 0.418 -5.166 2.277 C.3 1 FUZI_1    0.000
11 C.d 1.959 -5.139 2.527 C.3 1 FUZI_1    0.000
12 C_28918 1.305 -1.859 5.883 C.3 1 FUZI_1    0.000
13 C.c 0.035 -3.752 1.785 C.3 1 FUZI_1    0.000
14 O 2.312 -1.010 1.569 O.2 1 FUZI_1    0.000
15 O -2.062 -3.795 2.905 O.2 1 FUZI_1    0.000
16 N 1.243 -2.942 1.821 N.am 1 FUZI_1    0.000
17 C_28912 0.222 0.411 2.868 C.3 1 FUZI_1    0.000
18 C_28909 -0.566 -0.302 0.680 C.3 1 FUZI_1    0.000
19 O -3.865 -1.527 1.656 O.co2 1 FUZI_1    0.000
20 O -2.251 1.393 -0.898 O.2 1 FUZI_1    0.000
21 C_28900 3.185 -5.991 4.583 C.2 1 FUZI_1    0.000
22 C_28897 2.588 -6.291 1.726 C.2 1 FUZI_1    0.000
23 N.d 2.293 -5.135 4.003 N.am 1 FUZI_1    0.000
24 C.d2 1.557 -4.156 4.863 C.3 1 FUZI_1    0.000
25 C_28917 3.583 -2.951 5.913 C.3 1 FUZI_1    0.000
26 C_28916 2.266 -2.797 5.123 C.3 1 FUZI_1    0.000
27 C_28908 1.266 -1.595 1.780 C.2 1 FUZI_1    0.000
28 C_28905 -1.143 -3.112 2.494 C.2 1 FUZI_1    0.000
29 N.b -1.124 -1.756 2.650 N.am 1 FUZI_1    0.000
30 C.b2 -2.269 -1.088 3.336 C.3 1 FUZI_1    0.000
31 OH -3.833 0.439 2.476 O.co2 1 FUZI_1    0.000
32 C_28922 -3.411 -0.698 2.418 C.2 1 FUZI_1    0.000
33 C_28929 0.820 1.829 -4.071 C.2 1 FUZI_1    0.000
34 C.a2 0.693 1.874 0.143 C.3 1 FUZI_1    0.000
35 C_28931 1.301 0.832 -2.037 C.2 1 FUZI_1    0.000
36 C_28927 0.229 2.866 -2.084 C.2 1 FUZI_1    0.000
37 C_28926 0.731 1.846 -1.379 C.2 1 FUZI_1    0.000
38 C_28935 0.852 1.826 -5.408 C.2 1 FUZI_1    0.000
39 C_28930 1.341 0.818 -3.370 C.2 1 FUZI_1    0.000
40 C_28928 0.261 2.865 -3.420 C.2 1 FUZI_1    0.000
41 C_28932 -0.256 3.884 -4.117 C.2 1 FUZI_1    0.000
42 C_28933 -0.220 3.872 -5.450 C.2 1 FUZI_1    0.000
43 C_28934 0.332 2.845 -6.095 C.2 1 FUZI_1    0.000
44 C.a -0.586 1.250 0.795 C.3 1 FUZI_1    0.000
45 N -0.534 1.494 2.235 N.am 1 FUZI_1    0.000
46 O -0.844 2.704 4.064 O.2 1 FUZI_1    0.000
47 C_28938 -1.993 3.493 2.072 C.3 1 FUZI_1    0.000
48 C_28936 -1.856 1.821 0.172 C.2 1 FUZI_1    0.000
49 C_28939 -1.077 2.551 2.880 C.2 1 FUZI_1    0.000
50 N.z -2.549 2.780 0.858 N.am 1 FUZI_1    0.000
51 C.z2 -3.899 3.186 0.368 C.3 1 FUZI_1    0.000
52 C_28975 -1.098 4.688 1.595 C.3 1 FUZI_1    0.000
53 C_28944 -3.092 4.046 3.057 C.3 1 FUZI_1    0.000
54 C_28945 -2.587 5.143 4.031 C.3 1 FUZI_1    0.000
55 NH -1.928 6.278 3.326 N.2 1 FUZI_1    0.000
56 C_28979 -4.941 6.642 -0.533 C.2 1 FUZI_1    0.000
57 C_28980 -4.863 5.453 0.074 C.2 1 FUZI_1    0.000
58 C_28976 -3.195 4.806 -1.373 C.2 1 FUZI_1    0.000
59 C_28977 -3.263 5.986 -1.989 C.2 1 FUZI_1    0.000
60 C_28943 -3.985 4.530 -0.331 C.2 1 FUZI_1    0.000
61 C_28984 -5.813 7.567 -0.117 C.2 1 FUZI_1    0.000
62 C_28978 -4.131 6.913 -1.574 C.2 1 FUZI_1    0.000
63 C_28981 -4.207 8.102 -2.181 C.2 1 FUZI_1    0.000
64 C_28982 -5.080 9.018 -1.758 C.2 1 FUZI_1    0.000
65 C_28983 -5.882 8.751 -0.728 C.2 1 FUZI_1    0.000
66 C_28974 -1.691 6.087 1.871 C.3 1 FUZI_1    0.000
67 H_289741 -0.986 6.849 1.529 H 1 FUZI_1    0.000
68 H_289742 -2.628 6.222 1.331 H 1 FUZI_1    0.000
69 H_28983 -6.593 9.498 -0.385 H 1 FUZI_1    0.000
70 H_28982 -5.137 9.983 -2.255 H 1 FUZI_1    0.000
71 H_28981 -3.559 8.333 -3.024 H 1 FUZI_1    0.000
72 H_28984 -6.474 7.363 0.723 H 1 FUZI_1    0.000
73 H_28977 -2.606 6.186 -2.832 H 1 FUZI_1    0.000
74 H_28976 -2.487 4.064 -1.730 H 1 FUZI_1    0.000
75 H_28980 -5.519 5.235 0.914 H 1 FUZI_1    0.000
76 H_289451 -3.443 5.536 4.585 H 1 FUZI_1    0.000
77 H_289452 -1.887 4.732 4.759 H 1 FUZI_1    0.000
78 H_289441 -3.538 3.224 3.622 H 1 FUZI_1    0.000
79 H_289442 -3.907 4.527 2.522 H 1 FUZI_1    0.000
80 H_289751 -0.897 4.608 0.525 H 1 FUZI_1    0.000
81 H_289752 -0.122 4.646 2.085 H 1 FUZI_1    0.000
82 H.z21 -4.615 3.131 1.190 H 1 FUZI_1    0.000
83 H.z22 -4.266 2.438 -0.339 H 1 FUZI_1    0.000
84 H_28934 0.361 2.838 -7.181 H 1 FUZI_1    0.000
85 H_28933 -0.643 4.702 -6.011 H 1 FUZI_1    0.000
86 H_28932 -0.709 4.729 -3.604 H 1 FUZI_1    0.000
87 H_28930 1.806 -0.024 -3.879 H 1 FUZI_1    0.000
88 H_28935 1.302 0.995 -5.947 H 1 FUZI_1    0.000
89 H_28927 -0.215 3.707 -1.558 H 1 FUZI_1    0.000
90 H_28931 1.742 0.003 -1.489 H 1 FUZI_1    0.000
91 H.a21 1.583 1.373 0.529 H 1 FUZI_1    0.000
92 H.a22 0.789 2.911 0.471 H 1 FUZI_1    0.000
93 H.b21 -1.970 -0.192 3.878 H 1 FUZI_1    0.000
94 H.b22 -2.692 -1.765 4.083 H 1 FUZI_1    0.000
95 H_28916 2.502 -2.315 4.177 H 1 FUZI_1    0.000
96 H_289171 4.316 -3.520 5.338 H 1 FUZI_1    0.000
97 H_289172 3.410 -3.460 6.864 H 1 FUZI_1    0.000
98 H_289173 4.018 -1.972 6.123 H 1 FUZI_1    0.000
99 H.d21 1.347 -4.625 5.827 H 1 FUZI_1    0.000
100 H.d22 0.583 -3.927 4.435 H 1 FUZI_1    0.000
101 H_289091 -1.565 -0.682 0.467 H 1 FUZI_1    0.000
102 H_289092 0.053 -0.642 -0.150 H 1 FUZI_1    0.000
103 H_289121 -0.034 0.286 3.922 H 1 FUZI_1    0.000
104 H_289122 1.275 0.698 2.830 H 1 FUZI_1    0.000
105 H.c -0.263 -3.821 0.735 H 1 FUZI_1    0.000
106 H_289181 0.380 -1.719 5.319 H 1 FUZI_1    0.000
107 H_289182 1.761 -0.878 6.030 H 1 FUZI_1    0.000
108 H_289183 1.050 -2.272 6.862 H 1 FUZI_1    0.000
109 H_289011 -0.129 -5.469 3.173 H 1 FUZI_1    0.000
110 H_289012 0.128 -5.884 1.506 H 1 FUZI_1    0.000
111 H_289041 3.242 -3.365 2.397 H 1 FUZI_1    0.000
112 H_289042 2.724 -3.994 0.820 H 1 FUZI_1    0.000
113 H.e 4.956 -6.266 3.507 H 1 FUZI_1    0.000
114 H_288921 3.551 -8.700 4.684 H 1 FUZI_1    0.000
115 H_288922 5.229 -8.165 4.965 H 1 FUZI_1    0.000
116 H_288941 4.524 -8.255 0.938 H 1 FUZI_1    0.000
117 H_288942 3.095 -9.039 1.677 H 1 FUZI_1    0.000
118 H_288931 5.890 -8.790 2.746 H 1 FUZI_1    0.000
119 H_288932 4.694 -10.066 3.073 H 1 FUZI_1    0.000
@<TRIPOS>BOND
1 1 29 1 
2 2 4 1 
3 2 118 1 
4 2 119 1 
5 3 2 1 
6 3 116 1 
7 3 117 1 
8 4 114 1 
9 4 115 1 
10 5 3 1 
11 7 5 1 
12 7 4 1 
13 7 113 1 
14 9 16 1 
15 9 111 1 
16 9 112 1 
17 10 11 1 
18 10 13 1 
19 10 109 1 
20 10 110 1 
21 11 22 1 
22 11 9 1 
23 12 26 1 
24 12 106 1 
25 12 107 1 
26 12 108 1 
27 13 105 1 
28 16 13 1 
29 17 45 1 
30 17 1 1 
31 17 103 1 
32 17 104 1 
33 18 1 1 
34 18 101 1 
35 18 102 1 
36 19 32 2 
37 21 23 1 
38 21 7 1 
39 21 6 2 
40 22 5 1 
41 22 8 2 
42 23 11 1 
43 23 24 1 
44 24 99 1 
45 24 100 1 
46 25 26 1 
47 25 96 1 
48 25 97 1 
49 25 98 1 
50 26 24 1 
51 26 95 1 
52 27 1 1 
53 27 16 1 
54 27 14 2 
55 28 13 1 
56 28 15 2 
57 29 28 1 
58 29 30 1 
59 30 93 1 
60 30 94 1 
61 31 32 1 
62 32 30 1 
63 33 40 2 
64 34 37 1 
65 34 91 1 
66 34 92 1 
67 35 39 2 
68 35 37 1 
69 35 90 1 
70 36 37 2 
71 36 89 1 
72 38 43 2 
73 38 33 1 
74 38 88 1 
75 39 33 1 
76 39 87 1 
77 40 36 1 
78 41 40 1 
79 41 86 1 
80 42 41 2 
81 42 85 1 
82 43 42 1 
83 43 84 1 
84 44 18 1 
85 44 34 1 
86 44 48 1 
87 45 44 1 
88 45 49 1 
89 46 49 2 
90 48 20 2 
91 49 47 1 
92 50 48 1 
93 50 47 1 
94 50 51 1 
95 51 82 1 
96 51 83 1 
97 52 66 1 
98 52 47 1 
99 52 80 1 
100 52 81 1 
101 53 47 1 
102 53 78 1 
103 53 79 1 
104 54 53 1 
105 54 76 1 
106 54 77 1 
107 55 54 1 
108 56 62 1 
109 57 56 2 
110 57 75 1 
111 58 60 2 
112 58 59 1 
113 58 74 1 
114 59 73 1 
115 60 51 1 
116 60 57 1 
117 61 65 2 
118 61 56 1 
119 61 72 1 
120 62 59 2 
121 63 62 1 
122 63 71 1 
123 64 63 2 
124 65 64 1 
125 66 55 1 
126 66 67 1 
127 66 68 1 
128 69 65 1 
129 70 64 1 
@<TRIPOS>SUBSTRUCTURE
1 CKW::FUZI_1 1 RESIDUE 1 CKW::A CKW::FUZI 1
