@<TRIPOS>MOLECULE
COMMON-LISP:NIL
119 129 1 0 0
POLYMER
CHARGES


@<TRIPOS>ATOM
1 C.b 0.740688 1.0023 -0.846147 C.3 1 FUZI_1    0.000
2 C_28893 -6.924 -2.842 -0.115 C.3 1 FUZI_1    0.000
3 C_28894 -5.612 -3.025 -0.902 C.3 1 FUZI_1    0.000
4 C_28892 -7.171 -1.327 -0.133 C.3 1 FUZI_1    0.000
5 N -5.322 -1.741 -1.559 N.am 1 FUZI_1    0.000
6 O -7.247 1.331 -1.421 O.2 1 FUZI_1    0.000
7 C.e -6.514 -0.916 -1.456 C.3 1 FUZI_1    0.000
8 O -3.170 -2.116 -1.931 O.2 1 FUZI_1    0.000
9 C_28904 -3.084 0.638 -0.779 C.3 1 FUZI_1    0.000
10 C_28901 -2.795 0.419 -3.172 C.3 1 FUZI_1    0.000
11 C.d -3.859 0.205 -2.050 C.3 1 FUZI_1    0.000
12 C_28918 -3.202 3.957 -2.150 C.3 1 FUZI_1    0.000
13 C.c -1.428 0.252 -2.480 C.3 1 FUZI_1    0.000
14 O -0.955 1.596 0.791 O.2 1 FUZI_1    0.000
15 O -0.259 1.252 -4.306 O.2 1 FUZI_1    0.000
16 N -1.649 0.601 -1.076 N.am 1 FUZI_1    0.000
17 C_28912 1.199 -0.478 -0.967 C.3 1 FUZI_1    0.000
18 C_28909 1.823 1.568 0.144 C.3 1 FUZI_1    0.000
19 O 0.064 4.323 -3.479 O.co2 1 FUZI_1    0.000
20 O 4.358 1.787 1.435 O.2 1 FUZI_1    0.000
21 C_28900 -6.325 0.571 -1.651 C.2 1 FUZI_1    0.000
22 C_28897 -4.080 -1.310 -1.868 C.2 1 FUZI_1    0.000
23 N.d -5.135 1.006 -2.153 N.am 1 FUZI_1    0.000
24 C.d2 -5.099 2.353 -2.799 C.3 1 FUZI_1    0.000
25 C_28917 -5.591 4.753 -2.135 C.3 1 FUZI_1    0.000
26 C_28916 -4.669 3.538 -1.892 C.3 1 FUZI_1    0.000
27 C_28908 -0.673 1.062 -0.262 C.2 1 FUZI_1    0.000
28 C_28905 -0.296 1.063 -3.105 C.2 1 FUZI_1    0.000
29 N.b 0.642 1.565 -2.239 N.am 1 FUZI_1    0.000
30 C.b2 1.522 2.720 -2.565 C.3 1 FUZI_1    0.000
31 OH 1.668 3.656 -4.719 O.co2 1 FUZI_1    0.000
32 C_28922 1.051 3.642 -3.673 C.2 1 FUZI_1    0.000
33 C_28929 -1.950 -1.213 2.812 C.2 1 FUZI_1    0.000
34 C.a2 2.041 0.051 2.269 C.3 1 FUZI_1    0.000
35 C_28931 -0.241 0.297 3.207 C.2 1 FUZI_1    0.000
36 C_28927 0.166 -1.574 1.936 C.2 1 FUZI_1    0.000
37 C_28926 0.605 -0.424 2.462 C.2 1 FUZI_1    0.000
38 C_28935 -3.222 -1.600 2.958 C.2 1 FUZI_1    0.000
39 C_28930 -1.506 -0.088 3.378 C.2 1 FUZI_1    0.000
40 C_28928 -1.102 -1.967 2.089 C.2 1 FUZI_1    0.000
41 C_28932 -1.539 -3.099 1.528 C.2 1 FUZI_1    0.000
42 C_28933 -2.808 -3.479 1.680 C.2 1 FUZI_1    0.000
43 C_28934 -3.649 -2.729 2.392 C.2 1 FUZI_1    0.000
44 C.a 2.558 0.371 0.820 C.3 1 FUZI_1    0.000
45 N 2.368 -0.725 -0.118 N.am 1 FUZI_1    0.000
46 O 2.813 -2.731 -0.931 O.2 1 FUZI_1    0.000
47 C_28938 4.646 -1.670 0.255 C.3 1 FUZI_1    0.000
48 C_28936 4.036 0.695 0.999 C.2 1 FUZI_1    0.000
49 C_28939 3.211 -1.763 -0.307 C.2 1 FUZI_1    0.000
50 N.z 4.974 -0.249 0.676 N.am 1 FUZI_1    0.000
51 C.z2 6.411 0.139 0.762 C.3 1 FUZI_1    0.000
52 C_28975 5.595 -2.219 -0.883 C.3 1 FUZI_1    0.000
53 C_28944 4.654 -2.647 1.484 C.3 1 FUZI_1    0.000
54 C_28945 6.002 -3.325 1.810 C.3 1 FUZI_1    0.000
55 NH 6.561 -3.948 0.593 N.2 1 FUZI_1    0.000
56 C_28979 9.122 -0.676 3.168 C.2 1 FUZI_1    0.000
57 C_28980 8.447 -0.430 2.041 C.2 1 FUZI_1    0.000
58 C_28976 6.526 -0.057 3.252 C.2 1 FUZI_1    0.000
59 C_28977 7.188 -0.299 4.383 C.2 1 FUZI_1    0.000
60 C_28943 7.145 -0.126 2.067 C.2 1 FUZI_1    0.000
61 C_28984 10.423 -0.987 3.133 C.2 1 FUZI_1    0.000
62 C_28978 8.487 -0.610 4.352 C.2 1 FUZI_1    0.000
63 C_28981 9.161 -0.857 5.481 C.2 1 FUZI_1    0.000
64 C_28982 10.457 -1.166 5.436 C.2 1 FUZI_1    0.000
65 C_28983 11.087 -1.231 4.263 C.2 1 FUZI_1    0.000
66 C_28974 6.894 -2.913 -0.407 C.3 1 FUZI_1    0.000
67 H_289741 7.380 -3.391 -1.261 H 1 FUZI_1    0.000
68 H_289742 7.600 -2.208 0.030 H 1 FUZI_1    0.000
69 H_28983 12.144 -1.483 4.228 H 1 FUZI_1    0.000
70 H_28982 11.000 -1.366 6.356 H 1 FUZI_1    0.000
71 H_28981 8.659 -0.807 6.445 H 1 FUZI_1    0.000
72 H_28984 10.951 -1.044 2.183 H 1 FUZI_1    0.000
73 H_28977 6.659 -0.240 5.332 H 1 FUZI_1    0.000
74 H_28976 5.471 0.191 3.312 H 1 FUZI_1    0.000
75 H_28980 8.962 -0.483 1.084 H 1 FUZI_1    0.000
76 H_289451 6.716 -2.610 2.214 H 1 FUZI_1    0.000
77 H_289452 5.841 -4.101 2.562 H 1 FUZI_1    0.000
78 H_289441 3.942 -3.458 1.311 H 1 FUZI_1    0.000
79 H_289442 4.307 -2.131 2.379 H 1 FUZI_1    0.000
80 H_289751 5.834 -1.420 -1.589 H 1 FUZI_1    0.000
81 H_289752 5.091 -2.980 -1.481 H 1 FUZI_1    0.000
82 H.z21 6.485 1.213 0.576 H 1 FUZI_1    0.000
83 H.z22 6.967 -0.289 -0.067 H 1 FUZI_1    0.000
84 H_28934 -4.684 -3.040 2.512 H 1 FUZI_1    0.000
85 H_28933 -3.157 -4.400 1.220 H 1 FUZI_1    0.000
86 H_28932 -0.865 -3.720 0.941 H 1 FUZI_1    0.000
87 H_28930 -2.175 0.530 3.973 H 1 FUZI_1    0.000
88 H_28935 -3.919 -0.999 3.538 H 1 FUZI_1    0.000
89 H_28927 0.847 -2.200 1.367 H 1 FUZI_1    0.000
90 H_28931 0.091 1.225 3.667 H 1 FUZI_1    0.000
91 H.a21 2.205 0.938 2.886 H 1 FUZI_1    0.000
92 H.a22 2.683 -0.713 2.706 H 1 FUZI_1    0.000
93 H.b21 2.517 2.350 -2.828 H 1 FUZI_1    0.000
94 H.b22 1.597 3.378 -1.697 H 1 FUZI_1    0.000
95 H_28916 -4.783 3.254 -0.843 H 1 FUZI_1    0.000
96 H_289171 -5.534 5.083 -3.175 H 1 FUZI_1    0.000
97 H_289172 -5.304 5.588 -1.492 H 1 FUZI_1    0.000
98 H_289173 -6.629 4.497 -1.911 H 1 FUZI_1    0.000
99 H.d21 -6.116 2.560 -3.143 H 1 FUZI_1    0.000
100 H.d22 -4.529 2.350 -3.726 H 1 FUZI_1    0.000
101 H_289091 1.421 2.271 0.876 H 1 FUZI_1    0.000
102 H_289092 2.590 2.109 -0.406 H 1 FUZI_1    0.000
103 H_289121 0.397 -1.163 -0.684 H 1 FUZI_1    0.000
104 H_289122 1.483 -0.700 -2.000 H 1 FUZI_1    0.000
105 H.c -1.119 -0.795 -2.522 H 1 FUZI_1    0.000
106 H_289181 -2.509 3.142 -1.949 H 1 FUZI_1    0.000
107 H_289182 -2.925 4.793 -1.505 H 1 FUZI_1    0.000
108 H_289183 -3.066 4.268 -3.189 H 1 FUZI_1    0.000
109 H_289011 -2.806 1.421 -3.587 H 1 FUZI_1    0.000
110 H_289012 -2.919 -0.283 -4.001 H 1 FUZI_1    0.000
111 H_289041 -3.346 1.652 -0.481 H 1 FUZI_1    0.000
112 H_289042 -3.303 -0.027 0.062 H 1 FUZI_1    0.000
113 H.e -7.172 -1.225 -2.274 H 1 FUZI_1    0.000
114 H_288921 -8.235 -1.080 -0.100 H 1 FUZI_1    0.000
115 H_288922 -6.660 -0.850 0.708 H 1 FUZI_1    0.000
116 H_288941 -4.801 -3.275 -0.216 H 1 FUZI_1    0.000
117 H_288942 -5.716 -3.815 -1.651 H 1 FUZI_1    0.000
118 H_288931 -6.849 -3.231 0.904 H 1 FUZI_1    0.000
119 H_288932 -7.737 -3.357 -0.631 H 1 FUZI_1    0.000
@<TRIPOS>BOND
1 1 29 1 
2 2 4 1 
3 2 118 1 
4 2 119 1 
5 3 2 1 
6 3 116 1 
7 3 117 1 
8 4 114 1 
9 4 115 1 
10 5 3 1 
11 7 5 1 
12 7 4 1 
13 7 113 1 
14 9 16 1 
15 9 111 1 
16 9 112 1 
17 10 11 1 
18 10 13 1 
19 10 109 1 
20 10 110 1 
21 11 22 1 
22 11 9 1 
23 12 26 1 
24 12 106 1 
25 12 107 1 
26 12 108 1 
27 13 105 1 
28 16 13 1 
29 17 45 1 
30 17 1 1 
31 17 103 1 
32 17 104 1 
33 18 1 1 
34 18 101 1 
35 18 102 1 
36 19 32 2 
37 21 23 1 
38 21 7 1 
39 21 6 2 
40 22 5 1 
41 22 8 2 
42 23 11 1 
43 23 24 1 
44 24 99 1 
45 24 100 1 
46 25 26 1 
47 25 96 1 
48 25 97 1 
49 25 98 1 
50 26 24 1 
51 26 95 1 
52 27 1 1 
53 27 16 1 
54 27 14 2 
55 28 13 1 
56 28 15 2 
57 29 28 1 
58 29 30 1 
59 30 93 1 
60 30 94 1 
61 31 32 1 
62 32 30 1 
63 33 40 2 
64 34 37 1 
65 34 91 1 
66 34 92 1 
67 35 39 2 
68 35 37 1 
69 35 90 1 
70 36 37 2 
71 36 89 1 
72 38 43 2 
73 38 33 1 
74 38 88 1 
75 39 33 1 
76 39 87 1 
77 40 36 1 
78 41 40 1 
79 41 86 1 
80 42 41 2 
81 42 85 1 
82 43 42 1 
83 43 84 1 
84 44 18 1 
85 44 34 1 
86 44 48 1 
87 45 44 1 
88 45 49 1 
89 46 49 2 
90 48 20 2 
91 49 47 1 
92 50 48 1 
93 50 47 1 
94 50 51 1 
95 51 82 1 
96 51 83 1 
97 52 66 1 
98 52 47 1 
99 52 80 1 
100 52 81 1 
101 53 47 1 
102 53 78 1 
103 53 79 1 
104 54 53 1 
105 54 76 1 
106 54 77 1 
107 55 54 1 
108 56 62 1 
109 57 56 2 
110 57 75 1 
111 58 60 2 
112 58 59 1 
113 58 74 1 
114 59 73 1 
115 60 51 1 
116 60 57 1 
117 61 65 2 
118 61 56 1 
119 61 72 1 
120 62 59 2 
121 63 62 1 
122 63 71 1 
123 64 63 2 
124 65 64 1 
125 66 55 1 
126 66 67 1 
127 66 68 1 
128 69 65 1 
129 70 64 1 
@<TRIPOS>SUBSTRUCTURE
1 CKW::FUZI_1 1 RESIDUE 1 CKW::A CKW::FUZI 1
