@<TRIPOS>MOLECULE
COMMON-LISP:NIL
119 129 1 0 0
POLYMER
CHARGES


@<TRIPOS>ATOM
1 C.b 1.25335 -0.650298 -0.448442 C.3 1 FUZI_1    0.000
2 C_28893 -1.425 7.864 2.828 C.3 1 FUZI_1    0.000
3 C_28894 -0.419 6.767 3.216 C.3 1 FUZI_1    0.000
4 C_28892 -1.767 7.551 1.367 C.3 1 FUZI_1    0.000
5 N -0.582 5.676 2.245 N.am 1 FUZI_1    0.000
6 O -2.003 5.971 -1.028 O.2 1 FUZI_1    0.000
7 C.e -1.649 6.020 1.318 C.3 1 FUZI_1    0.000
8 O 0.985 4.323 3.059 O.2 1 FUZI_1    0.000
9 C_28904 -0.433 2.309 1.397 C.3 1 FUZI_1    0.000
10 C_28901 1.516 3.406 0.406 C.3 1 FUZI_1    0.000
11 C.d 0.067 3.694 0.917 C.3 1 FUZI_1    0.000
12 C_28918 -2.111 2.117 -3.182 C.3 1 FUZI_1    0.000
13 C.c 1.812 1.955 0.831 C.3 1 FUZI_1    0.000
14 O -1.012 -0.142 0.221 O.2 1 FUZI_1    0.000
15 O 3.914 1.837 -0.245 O.2 1 FUZI_1    0.000
16 N 0.512 1.313 0.887 N.am 1 FUZI_1    0.000
17 C_28912 0.693 -1.075 -1.828 C.3 1 FUZI_1    0.000
18 C_28909 1.323 -2.003 0.307 C.3 1 FUZI_1    0.000
19 O 4.803 -1.508 0.550 O.co2 1 FUZI_1    0.000
20 O -0.595 -3.722 1.676 O.2 1 FUZI_1    0.000
21 C_28900 -1.505 5.422 -0.064 C.2 1 FUZI_1    0.000
22 C_28897 0.194 4.576 2.168 C.2 1 FUZI_1    0.000
23 N.d -0.818 4.249 -0.168 N.am 1 FUZI_1    0.000
24 C.d2 -0.861 3.446 -1.428 C.3 1 FUZI_1    0.000
25 C_28917 -3.218 2.478 -0.945 C.3 1 FUZI_1    0.000
26 C_28916 -2.266 3.091 -1.995 C.3 1 FUZI_1    0.000
27 C_28908 0.159 0.180 0.245 C.2 1 FUZI_1    0.000
28 C_28905 2.854 1.277 -0.033 C.2 1 FUZI_1    0.000
29 N.b 2.578 0.046 -0.550 N.am 1 FUZI_1    0.000
30 C.b2 3.623 -0.683 -1.317 C.3 1 FUZI_1    0.000
31 OH 5.952 -0.619 -1.010 O.co2 1 FUZI_1    0.000
32 C_28922 4.890 -0.963 -0.533 C.2 1 FUZI_1    0.000
33 C_28929 4.187 -4.041 -3.468 C.2 1 FUZI_1    0.000
34 C.a2 0.961 -4.321 -0.770 C.3 1 FUZI_1    0.000
35 C_28931 1.909 -4.095 -3.059 C.2 1 FUZI_1    0.000
36 C_28927 3.387 -4.290 -1.306 C.2 1 FUZI_1    0.000
37 C_28926 2.125 -4.223 -1.746 C.2 1 FUZI_1    0.000
38 C_28935 5.218 -3.935 -4.314 C.2 1 FUZI_1    0.000
39 C_28930 2.928 -3.999 -3.913 C.2 1 FUZI_1    0.000
40 C_28928 4.419 -4.191 -2.151 C.2 1 FUZI_1    0.000
41 C_28932 5.677 -4.233 -1.701 C.2 1 FUZI_1    0.000
42 C_28933 6.699 -4.125 -2.551 C.2 1 FUZI_1    0.000
43 C_28934 6.470 -3.976 -3.855 C.2 1 FUZI_1    0.000
44 C.a 0.297 -2.958 -0.387 C.3 1 FUZI_1    0.000
45 N -0.169 -2.237 -1.579 N.am 1 FUZI_1    0.000
46 O -1.551 -1.958 -3.276 O.2 1 FUZI_1    0.000
47 C_28938 -2.541 -2.917 -1.272 C.3 1 FUZI_1    0.000
48 C_28936 -0.846 -3.271 0.573 C.2 1 FUZI_1    0.000
49 C_28939 -1.393 -2.350 -2.134 C.2 1 FUZI_1    0.000
50 N.z -2.131 -3.019 0.184 N.am 1 FUZI_1    0.000
51 C.z2 -3.175 -2.907 1.243 C.3 1 FUZI_1    0.000
52 C_28975 -2.826 -4.344 -1.830 C.3 1 FUZI_1    0.000
53 C_28944 -3.794 -2.000 -1.566 C.3 1 FUZI_1    0.000
54 C_28945 -5.205 -2.632 -1.411 C.3 1 FUZI_1    0.000
55 NH -5.255 -3.993 -1.996 N.2 1 FUZI_1    0.000
56 C_28979 -4.135 0.582 2.169 C.2 1 FUZI_1    0.000
57 C_28980 -4.138 -0.635 1.615 C.2 1 FUZI_1    0.000
58 C_28976 -2.285 -1.217 2.841 C.2 1 FUZI_1    0.000
59 C_28977 -2.273 -0.010 3.407 C.2 1 FUZI_1    0.000
60 C_28943 -3.204 -1.542 1.924 C.2 1 FUZI_1    0.000
61 C_28984 -5.056 1.491 1.831 C.2 1 FUZI_1    0.000
62 C_28978 -3.188 0.901 3.070 C.2 1 FUZI_1    0.000
63 C_28981 -3.173 2.123 3.614 C.2 1 FUZI_1    0.000
64 C_28982 -4.091 3.025 3.265 C.2 1 FUZI_1    0.000
65 C_28983 -5.032 2.709 2.376 C.2 1 FUZI_1    0.000
66 C_28974 -4.213 -4.888 -1.441 C.3 1 FUZI_1    0.000
67 H_289741 -4.343 -5.886 -1.867 H 1 FUZI_1    0.000
68 H_289742 -4.313 -4.958 -0.356 H 1 FUZI_1    0.000
69 H_28983 -5.780 3.445 2.093 H 1 FUZI_1    0.000
70 H_28982 -4.071 4.018 3.707 H 1 FUZI_1    0.000
71 H_28981 -2.410 2.393 4.342 H 1 FUZI_1    0.000
72 H_28984 -5.827 1.250 1.103 H 1 FUZI_1    0.000
73 H_28977 -1.502 0.226 4.138 H 1 FUZI_1    0.000
74 H_28976 -1.522 -1.931 3.132 H 1 FUZI_1    0.000
75 H_28980 -4.907 -0.884 0.890 H 1 FUZI_1    0.000
76 H_289451 -5.540 -2.669 -0.376 H 1 FUZI_1    0.000
77 H_289452 -5.921 -2.005 -1.948 H 1 FUZI_1    0.000
78 H_289441 -3.786 -1.686 -2.610 H 1 FUZI_1    0.000
79 H_289442 -3.720 -1.071 -1.002 H 1 FUZI_1    0.000
80 H_289751 -2.063 -5.043 -1.484 H 1 FUZI_1    0.000
81 H_289752 -2.767 -4.335 -2.922 H 1 FUZI_1    0.000
82 H.z21 -2.979 -3.664 2.007 H 1 FUZI_1    0.000
83 H.z22 -4.152 -3.162 0.860 H 1 FUZI_1    0.000
84 H_28934 7.304 -3.888 -4.547 H 1 FUZI_1    0.000
85 H_28933 7.720 -4.157 -2.179 H 1 FUZI_1    0.000
86 H_28932 5.880 -4.352 -0.639 H 1 FUZI_1    0.000
87 H_28930 2.722 -3.884 -4.975 H 1 FUZI_1    0.000
88 H_28935 5.045 -3.813 -5.381 H 1 FUZI_1    0.000
89 H_28927 3.576 -4.409 -0.241 H 1 FUZI_1    0.000
90 H_28931 0.892 -4.057 -3.442 H 1 FUZI_1    0.000
91 H.a21 0.203 -4.977 -1.202 H 1 FUZI_1    0.000
92 H.a22 1.298 -4.823 0.142 H 1 FUZI_1    0.000
93 H.b21 3.894 -0.089 -2.195 H 1 FUZI_1    0.000
94 H.b22 3.267 -1.653 -1.659 H 1 FUZI_1    0.000
95 H_28916 -2.734 3.998 -2.381 H 1 FUZI_1    0.000
96 H_289171 -3.342 3.145 -0.090 H 1 FUZI_1    0.000
97 H_289172 -2.844 1.517 -0.591 H 1 FUZI_1    0.000
98 H_289173 -4.205 2.311 -1.381 H 1 FUZI_1    0.000
99 H.d21 -0.331 2.504 -1.283 H 1 FUZI_1    0.000
100 H.d22 -0.314 4.005 -2.193 H 1 FUZI_1    0.000
101 H_289091 1.110 -1.858 1.369 H 1 FUZI_1    0.000
102 H_289092 2.325 -2.422 0.266 H 1 FUZI_1    0.000
103 H_289121 0.125 -0.254 -2.273 H 1 FUZI_1    0.000
104 H_289122 1.468 -1.374 -2.534 H 1 FUZI_1    0.000
105 H.c 2.213 1.955 1.849 H 1 FUZI_1    0.000
106 H_289181 -3.082 1.908 -3.637 H 1 FUZI_1    0.000
107 H_289182 -1.676 1.170 -2.854 H 1 FUZI_1    0.000
108 H_289183 -1.463 2.547 -3.949 H 1 FUZI_1    0.000
109 H_289011 2.258 4.093 0.821 H 1 FUZI_1    0.000
110 H_289012 1.593 3.493 -0.679 H 1 FUZI_1    0.000
111 H_289041 -0.430 2.244 2.489 H 1 FUZI_1    0.000
112 H_289042 -1.448 2.120 1.050 H 1 FUZI_1    0.000
113 H.e -2.567 5.588 1.728 H 1 FUZI_1    0.000
114 H_288921 -2.763 7.901 1.089 H 1 FUZI_1    0.000
115 H_288922 -1.025 8.009 0.706 H 1 FUZI_1    0.000
116 H_288941 0.601 7.154 3.143 H 1 FUZI_1    0.000
117 H_288942 -0.607 6.408 4.232 H 1 FUZI_1    0.000
118 H_288931 -1.011 8.867 2.950 H 1 FUZI_1    0.000
119 H_288932 -2.323 7.773 3.444 H 1 FUZI_1    0.000
@<TRIPOS>BOND
1 1 29 1 
2 2 4 1 
3 2 118 1 
4 2 119 1 
5 3 2 1 
6 3 116 1 
7 3 117 1 
8 4 114 1 
9 4 115 1 
10 5 3 1 
11 7 5 1 
12 7 4 1 
13 7 113 1 
14 9 16 1 
15 9 111 1 
16 9 112 1 
17 10 11 1 
18 10 13 1 
19 10 109 1 
20 10 110 1 
21 11 22 1 
22 11 9 1 
23 12 26 1 
24 12 106 1 
25 12 107 1 
26 12 108 1 
27 13 105 1 
28 16 13 1 
29 17 45 1 
30 17 1 1 
31 17 103 1 
32 17 104 1 
33 18 1 1 
34 18 101 1 
35 18 102 1 
36 19 32 2 
37 21 23 1 
38 21 7 1 
39 21 6 2 
40 22 5 1 
41 22 8 2 
42 23 11 1 
43 23 24 1 
44 24 99 1 
45 24 100 1 
46 25 26 1 
47 25 96 1 
48 25 97 1 
49 25 98 1 
50 26 24 1 
51 26 95 1 
52 27 1 1 
53 27 16 1 
54 27 14 2 
55 28 13 1 
56 28 15 2 
57 29 28 1 
58 29 30 1 
59 30 93 1 
60 30 94 1 
61 31 32 1 
62 32 30 1 
63 33 40 2 
64 34 37 1 
65 34 91 1 
66 34 92 1 
67 35 39 2 
68 35 37 1 
69 35 90 1 
70 36 37 2 
71 36 89 1 
72 38 43 2 
73 38 33 1 
74 38 88 1 
75 39 33 1 
76 39 87 1 
77 40 36 1 
78 41 40 1 
79 41 86 1 
80 42 41 2 
81 42 85 1 
82 43 42 1 
83 43 84 1 
84 44 18 1 
85 44 34 1 
86 44 48 1 
87 45 44 1 
88 45 49 1 
89 46 49 2 
90 48 20 2 
91 49 47 1 
92 50 48 1 
93 50 47 1 
94 50 51 1 
95 51 82 1 
96 51 83 1 
97 52 66 1 
98 52 47 1 
99 52 80 1 
100 52 81 1 
101 53 47 1 
102 53 78 1 
103 53 79 1 
104 54 53 1 
105 54 76 1 
106 54 77 1 
107 55 54 1 
108 56 62 1 
109 57 56 2 
110 57 75 1 
111 58 60 2 
112 58 59 1 
113 58 74 1 
114 59 73 1 
115 60 51 1 
116 60 57 1 
117 61 65 2 
118 61 56 1 
119 61 72 1 
120 62 59 2 
121 63 62 1 
122 63 71 1 
123 64 63 2 
124 65 64 1 
125 66 55 1 
126 66 67 1 
127 66 68 1 
128 69 65 1 
129 70 64 1 
@<TRIPOS>SUBSTRUCTURE
1 CKW::FUZI_1 1 RESIDUE 1 CKW::A CKW::FUZI 1
