@<TRIPOS>MOLECULE
COMMON-LISP:NIL
119 129 1 0 0
POLYMER
CHARGES


@<TRIPOS>ATOM
1 C.b 0.483994 -0.170636 0.816716 C.3 1 FUZI_1    0.000
2 C_28893 -5.818 0.260 7.830 C.3 1 FUZI_1    0.000
3 C_28894 -5.548 1.028 6.525 C.3 1 FUZI_1    0.000
4 C_28892 -4.914 -0.975 7.725 C.3 1 FUZI_1    0.000
5 N -4.269 0.535 5.995 N.am 1 FUZI_1    0.000
6 O -2.702 -2.584 6.821 O.2 1 FUZI_1    0.000
7 C.e -3.718 -0.442 6.922 C.3 1 FUZI_1    0.000
8 O -4.237 1.754 4.136 O.2 1 FUZI_1    0.000
9 C_28904 -1.408 0.948 3.971 C.3 1 FUZI_1    0.000
10 C_28901 -3.027 -0.499 2.835 C.3 1 FUZI_1    0.000
11 C.d -2.596 -0.011 4.254 C.3 1 FUZI_1    0.000
12 C_28918 1.062 -3.300 4.758 C.3 1 FUZI_1    0.000
13 C.c -2.230 0.376 1.855 C.3 1 FUZI_1    0.000
14 O 1.167 0.877 2.874 O.2 1 FUZI_1    0.000
15 O -3.015 -0.596 -0.146 O.2 1 FUZI_1    0.000
16 N -1.022 0.745 2.570 N.am 1 FUZI_1    0.000
17 C_28912 1.280 -1.457 1.131 C.3 1 FUZI_1    0.000
18 C_28909 1.490 0.664 -0.031 C.3 1 FUZI_1    0.000
19 O -1.114 -3.183 -2.369 O.co2 1 FUZI_1    0.000
20 O 2.909 0.773 -2.537 O.2 1 FUZI_1    0.000
21 C_28900 -2.836 -1.497 6.291 C.2 1 FUZI_1    0.000
22 C_28897 -3.755 0.845 4.788 C.2 1 FUZI_1    0.000
23 N.d -2.196 -1.168 5.134 N.am 1 FUZI_1    0.000
24 C.d2 -1.141 -2.064 4.573 C.3 1 FUZI_1    0.000
25 C_28917 0.812 -1.098 5.966 C.3 1 FUZI_1    0.000
26 C_28916 0.075 -2.369 5.494 C.3 1 FUZI_1    0.000
27 C_28908 0.246 0.536 2.158 C.2 1 FUZI_1    0.000
28 C_28905 -2.038 -0.284 0.509 C.2 1 FUZI_1    0.000
29 N.b -0.773 -0.507 0.058 N.am 1 FUZI_1    0.000
30 C.b2 -0.592 -1.185 -1.256 C.3 1 FUZI_1    0.000
31 OH -1.195 -3.250 -0.246 O.co2 1 FUZI_1    0.000
32 C_28922 -0.991 -2.652 -1.284 C.2 1 FUZI_1    0.000
33 C_28929 4.312 0.299 4.397 C.2 1 FUZI_1    0.000
34 C.a2 4.033 0.208 0.192 C.3 1 FUZI_1    0.000
35 C_28931 4.062 1.396 2.373 C.2 1 FUZI_1    0.000
36 C_28927 4.318 -0.890 2.406 C.2 1 FUZI_1    0.000
37 C_28926 4.126 0.236 1.711 C.2 1 FUZI_1    0.000
38 C_28935 4.390 0.317 5.732 C.2 1 FUZI_1    0.000
39 C_28930 4.152 1.429 3.703 C.2 1 FUZI_1    0.000
40 C_28928 4.398 -0.873 3.740 C.2 1 FUZI_1    0.000
41 C_28932 4.561 -2.007 4.430 C.2 1 FUZI_1    0.000
42 C_28933 4.637 -1.980 5.761 C.2 1 FUZI_1    0.000
43 C_28934 4.551 -0.819 6.411 C.2 1 FUZI_1    0.000
44 C.a 2.676 -0.279 -0.418 C.3 1 FUZI_1    0.000
45 N 2.301 -1.602 0.089 N.am 1 FUZI_1    0.000
46 O 2.424 -3.814 0.164 O.2 1 FUZI_1    0.000
47 C_28938 3.269 -2.798 -1.862 C.3 1 FUZI_1    0.000
48 C_28936 2.903 -0.281 -1.924 C.2 1 FUZI_1    0.000
49 C_28939 2.650 -2.788 -0.453 C.2 1 FUZI_1    0.000
50 N.z 3.131 -1.468 -2.559 N.am 1 FUZI_1    0.000
51 C.z2 3.492 -1.437 -4.002 C.3 1 FUZI_1    0.000
52 C_28975 2.537 -3.958 -2.632 C.3 1 FUZI_1    0.000
53 C_28944 4.782 -3.145 -1.667 C.3 1 FUZI_1    0.000
54 C_28945 5.382 -4.037 -2.779 C.3 1 FUZI_1    0.000
55 NH 4.618 -5.302 -2.979 N.2 1 FUZI_1    0.000
56 C_28979 0.172 -0.815 -5.591 C.2 1 FUZI_1    0.000
57 C_28980 1.125 -1.291 -4.782 C.2 1 FUZI_1    0.000
58 C_28976 2.713 -0.056 -5.900 C.2 1 FUZI_1    0.000
59 C_28977 1.773 0.424 -6.714 C.2 1 FUZI_1    0.000
60 C_28943 2.402 -0.916 -4.925 C.2 1 FUZI_1    0.000
61 C_28984 -1.104 -1.188 -5.441 C.2 1 FUZI_1    0.000
62 C_28978 0.499 0.052 -6.567 C.2 1 FUZI_1    0.000
63 C_28981 -0.452 0.531 -7.376 C.2 1 FUZI_1    0.000
64 C_28982 -1.721 0.153 -7.218 C.2 1 FUZI_1    0.000
65 C_28983 -2.047 -0.706 -6.252 C.2 1 FUZI_1    0.000
66 C_28974 3.229 -5.327 -2.446 C.3 1 FUZI_1    0.000
67 H_289741 3.256 -5.607 -1.390 H 1 FUZI_1    0.000
68 H_289742 2.662 -6.090 -2.987 H 1 FUZI_1    0.000
69 H_28983 -3.082 -1.013 -6.124 H 1 FUZI_1    0.000
70 H_28982 -2.491 0.545 -7.878 H 1 FUZI_1    0.000
71 H_28981 -0.201 1.232 -8.169 H 1 FUZI_1    0.000
72 H_28984 -1.386 -1.887 -4.659 H 1 FUZI_1    0.000
73 H_28977 2.056 1.125 -7.498 H 1 FUZI_1    0.000
74 H_28976 3.744 0.263 -6.035 H 1 FUZI_1    0.000
75 H_28980 0.856 -1.989 -3.993 H 1 FUZI_1    0.000
76 H_289451 5.427 -3.494 -3.724 H 1 FUZI_1    0.000
77 H_289452 6.406 -4.298 -2.501 H 1 FUZI_1    0.000
78 H_289441 4.927 -3.676 -0.722 H 1 FUZI_1    0.000
79 H_289442 5.372 -2.230 -1.587 H 1 FUZI_1    0.000
80 H_289751 2.470 -3.785 -3.704 H 1 FUZI_1    0.000
81 H_289752 1.500 -4.033 -2.300 H 1 FUZI_1    0.000
82 H.z21 3.808 -2.412 -4.363 H 1 FUZI_1    0.000
83 H.z22 4.371 -0.791 -4.092 H 1 FUZI_1    0.000
84 H_28934 4.613 -0.799 7.496 H 1 FUZI_1    0.000
85 H_28933 4.767 -2.905 6.317 H 1 FUZI_1    0.000
86 H_28932 4.631 -2.962 3.913 H 1 FUZI_1    0.000
87 H_28930 4.086 2.386 4.217 H 1 FUZI_1    0.000
88 H_28935 4.322 1.257 6.275 H 1 FUZI_1    0.000
89 H_28927 4.395 -1.838 1.876 H 1 FUZI_1    0.000
90 H_28931 3.926 2.328 1.830 H 1 FUZI_1    0.000
91 H.a21 4.257 1.204 -0.199 H 1 FUZI_1    0.000
92 H.a22 4.834 -0.434 -0.179 H 1 FUZI_1    0.000
93 H.b21 0.435 -1.136 -1.607 H 1 FUZI_1    0.000
94 H.b22 -1.210 -0.673 -1.999 H 1 FUZI_1    0.000
95 H_28916 -0.268 -2.903 6.381 H 1 FUZI_1    0.000
96 H_289171 1.624 -1.364 6.645 H 1 FUZI_1    0.000
97 H_289172 0.135 -0.431 6.504 H 1 FUZI_1    0.000
98 H_289173 1.242 -0.559 5.120 H 1 FUZI_1    0.000
99 H.d21 -0.746 -1.645 3.646 H 1 FUZI_1    0.000
100 H.d22 -1.621 -3.012 4.314 H 1 FUZI_1    0.000
101 H_289091 1.858 1.535 0.514 H 1 FUZI_1    0.000
102 H_289092 0.985 1.066 -0.913 H 1 FUZI_1    0.000
103 H_289121 1.787 -1.384 2.093 H 1 FUZI_1    0.000
104 H_289122 0.622 -2.326 1.167 H 1 FUZI_1    0.000
105 H.c -2.785 1.299 1.666 H 1 FUZI_1    0.000
106 H_289181 1.471 -2.814 3.871 H 1 FUZI_1    0.000
107 H_289182 0.561 -4.220 4.446 H 1 FUZI_1    0.000
108 H_289183 1.893 -3.573 5.413 H 1 FUZI_1    0.000
109 H_289011 -4.102 -0.403 2.659 H 1 FUZI_1    0.000
110 H_289012 -2.782 -1.550 2.668 H 1 FUZI_1    0.000
111 H_289041 -1.701 1.994 4.092 H 1 FUZI_1    0.000
112 H_289042 -0.576 0.750 4.645 H 1 FUZI_1    0.000
113 H.e -3.064 0.112 7.603 H 1 FUZI_1    0.000
114 H_288921 -4.621 -1.359 8.705 H 1 FUZI_1    0.000
115 H_288922 -5.425 -1.763 7.165 H 1 FUZI_1    0.000
116 H_288941 -6.336 0.815 5.798 H 1 FUZI_1    0.000
117 H_288942 -5.496 2.105 6.711 H 1 FUZI_1    0.000
118 H_288931 -6.871 -0.008 7.942 H 1 FUZI_1    0.000
119 H_288932 -5.512 0.868 8.685 H 1 FUZI_1    0.000
@<TRIPOS>BOND
1 1 29 1 
2 2 4 1 
3 2 118 1 
4 2 119 1 
5 3 2 1 
6 3 116 1 
7 3 117 1 
8 4 114 1 
9 4 115 1 
10 5 3 1 
11 7 5 1 
12 7 4 1 
13 7 113 1 
14 9 16 1 
15 9 111 1 
16 9 112 1 
17 10 11 1 
18 10 13 1 
19 10 109 1 
20 10 110 1 
21 11 22 1 
22 11 9 1 
23 12 26 1 
24 12 106 1 
25 12 107 1 
26 12 108 1 
27 13 105 1 
28 16 13 1 
29 17 45 1 
30 17 1 1 
31 17 103 1 
32 17 104 1 
33 18 1 1 
34 18 101 1 
35 18 102 1 
36 19 32 2 
37 21 23 1 
38 21 7 1 
39 21 6 2 
40 22 5 1 
41 22 8 2 
42 23 11 1 
43 23 24 1 
44 24 99 1 
45 24 100 1 
46 25 26 1 
47 25 96 1 
48 25 97 1 
49 25 98 1 
50 26 24 1 
51 26 95 1 
52 27 1 1 
53 27 16 1 
54 27 14 2 
55 28 13 1 
56 28 15 2 
57 29 28 1 
58 29 30 1 
59 30 93 1 
60 30 94 1 
61 31 32 1 
62 32 30 1 
63 33 40 2 
64 34 37 1 
65 34 91 1 
66 34 92 1 
67 35 39 2 
68 35 37 1 
69 35 90 1 
70 36 37 2 
71 36 89 1 
72 38 43 2 
73 38 33 1 
74 38 88 1 
75 39 33 1 
76 39 87 1 
77 40 36 1 
78 41 40 1 
79 41 86 1 
80 42 41 2 
81 42 85 1 
82 43 42 1 
83 43 84 1 
84 44 18 1 
85 44 34 1 
86 44 48 1 
87 45 44 1 
88 45 49 1 
89 46 49 2 
90 48 20 2 
91 49 47 1 
92 50 48 1 
93 50 47 1 
94 50 51 1 
95 51 82 1 
96 51 83 1 
97 52 66 1 
98 52 47 1 
99 52 80 1 
100 52 81 1 
101 53 47 1 
102 53 78 1 
103 53 79 1 
104 54 53 1 
105 54 76 1 
106 54 77 1 
107 55 54 1 
108 56 62 1 
109 57 56 2 
110 57 75 1 
111 58 60 2 
112 58 59 1 
113 58 74 1 
114 59 73 1 
115 60 51 1 
116 60 57 1 
117 61 65 2 
118 61 56 1 
119 61 72 1 
120 62 59 2 
121 63 62 1 
122 63 71 1 
123 64 63 2 
124 65 64 1 
125 66 55 1 
126 66 67 1 
127 66 68 1 
128 69 65 1 
129 70 64 1 
@<TRIPOS>SUBSTRUCTURE
1 CKW::FUZI_1 1 RESIDUE 1 CKW::A CKW::FUZI 1
