@<TRIPOS>MOLECULE
COMMON-LISP:NIL
119 129 1 0 0
POLYMER
CHARGES


@<TRIPOS>ATOM
1 C.b 2.33621 0.401449 1.0068 C.3 1 FUZI_1    0.000
2 C_28893 2.386 5.730 7.182 C.3 1 FUZI_1    0.000
3 C_28894 3.003 4.856 6.078 C.3 1 FUZI_1    0.000
4 C_28892 1.433 6.661 6.423 C.3 1 FUZI_1    0.000
5 N 2.074 4.896 4.942 N.am 1 FUZI_1    0.000
6 O -0.072 7.647 4.170 O.2 1 FUZI_1    0.000
7 C.e 0.958 5.788 5.249 C.3 1 FUZI_1    0.000
8 O 3.189 3.524 3.586 O.2 1 FUZI_1    0.000
9 C_28904 1.769 4.180 1.281 C.3 1 FUZI_1    0.000
10 C_28901 0.056 3.571 2.830 C.3 1 FUZI_1    0.000
11 C.d 1.203 4.596 2.669 C.3 1 FUZI_1    0.000
12 C_28918 -1.444 8.160 0.561 C.3 1 FUZI_1    0.000
13 C.c 0.518 2.305 2.074 C.3 1 FUZI_1    0.000
14 O 3.341 2.290 -0.150 O.2 1 FUZI_1    0.000
15 O 0.489 0.990 4.076 O.2 1 FUZI_1    0.000
16 N 1.612 2.726 1.195 N.am 1 FUZI_1    0.000
17 C_28912 3.582 -0.436 0.590 C.3 1 FUZI_1    0.000
18 C_28909 1.284 -0.245 0.072 C.3 1 FUZI_1    0.000
19 O 3.388 0.597 5.293 O.co2 1 FUZI_1    0.000
20 O 0.204 -1.885 -1.959 O.2 1 FUZI_1    0.000
21 C_28900 0.463 6.562 4.040 C.2 1 FUZI_1    0.000
22 C_28897 2.244 4.273 3.756 C.2 1 FUZI_1    0.000
23 N.d 0.678 5.998 2.814 N.am 1 FUZI_1    0.000
24 C.d2 0.437 6.806 1.589 C.3 1 FUZI_1    0.000
25 C_28917 -1.215 5.733 -0.070 C.3 1 FUZI_1    0.000
26 C_28916 -1.026 6.763 1.067 C.3 1 FUZI_1    0.000
27 C_28908 2.482 1.875 0.606 C.2 1 FUZI_1    0.000
28 C_28905 0.942 1.141 2.956 C.2 1 FUZI_1    0.000
29 N.b 1.897 0.309 2.447 N.am 1 FUZI_1    0.000
30 C.b2 2.663 -0.557 3.378 C.3 1 FUZI_1    0.000
31 OH 4.736 0.528 3.645 O.co2 1 FUZI_1    0.000
32 C_28922 3.683 0.233 4.173 C.2 1 FUZI_1    0.000
33 C_28929 -3.169 -2.824 1.011 C.2 1 FUZI_1    0.000
34 C.a2 1.044 -2.646 1.011 C.3 1 FUZI_1    0.000
35 C_28931 -1.122 -3.629 0.293 C.2 1 FUZI_1    0.000
36 C_28927 -1.198 -1.852 1.749 C.2 1 FUZI_1    0.000
37 C_28926 -0.478 -2.702 1.009 C.2 1 FUZI_1    0.000
38 C_28935 -4.505 -2.871 1.011 C.2 1 FUZI_1    0.000
39 C_28930 -2.454 -3.689 0.287 C.2 1 FUZI_1    0.000
40 C_28928 -2.534 -1.898 1.752 C.2 1 FUZI_1    0.000
41 C_28932 -3.246 -1.034 2.483 C.2 1 FUZI_1    0.000
42 C_28933 -4.578 -1.087 2.477 C.2 1 FUZI_1    0.000
43 C_28934 -5.207 -2.004 1.742 C.2 1 FUZI_1    0.000
44 C.a 1.673 -1.737 -0.097 C.3 1 FUZI_1    0.000
45 N 3.130 -1.724 0.035 N.am 1 FUZI_1    0.000
46 O 5.158 -2.566 -0.251 O.2 1 FUZI_1    0.000
47 C_28938 3.428 -3.552 -1.632 C.3 1 FUZI_1    0.000
48 C_28936 1.233 -2.282 -1.446 C.2 1 FUZI_1    0.000
49 C_28939 3.978 -2.596 -0.553 C.2 1 FUZI_1    0.000
50 N.z 2.016 -3.226 -2.047 N.am 1 FUZI_1    0.000
51 C.z2 1.509 -3.966 -3.241 C.3 1 FUZI_1    0.000
52 C_28975 3.490 -4.992 -1.028 C.3 1 FUZI_1    0.000
53 C_28944 4.399 -3.433 -2.870 C.3 1 FUZI_1    0.000
54 C_28945 5.041 -4.777 -3.282 C.3 1 FUZI_1    0.000
55 NH 5.743 -5.389 -2.124 N.2 1 FUZI_1    0.000
56 C_28979 -2.145 -4.670 -3.435 C.2 1 FUZI_1    0.000
57 C_28980 -0.951 -4.086 -3.574 C.2 1 FUZI_1    0.000
58 C_28976 0.057 -5.848 -2.495 C.2 1 FUZI_1    0.000
59 C_28977 -1.126 -6.446 -2.355 C.2 1 FUZI_1    0.000
60 C_28943 0.160 -4.658 -3.096 C.2 1 FUZI_1    0.000
61 C_28984 -3.253 -4.081 -3.898 C.2 1 FUZI_1    0.000
62 C_28978 -2.235 -5.862 -2.817 C.2 1 FUZI_1    0.000
63 C_28981 -3.429 -6.446 -2.673 C.2 1 FUZI_1    0.000
64 C_28982 -4.529 -5.850 -3.136 C.2 1 FUZI_1    0.000
65 C_28983 -4.441 -4.669 -3.748 C.2 1 FUZI_1    0.000
66 C_28974 4.928 -5.549 -0.886 C.3 1 FUZI_1    0.000
67 H_289741 5.441 -5.046 -0.063 H 1 FUZI_1    0.000
68 H_289742 4.872 -6.613 -0.641 H 1 FUZI_1    0.000
69 H_28983 -5.338 -4.185 -4.125 H 1 FUZI_1    0.000
70 H_28982 -5.498 -6.329 -3.015 H 1 FUZI_1    0.000
71 H_28981 -3.515 -7.410 -2.175 H 1 FUZI_1    0.000
72 H_28984 -3.197 -3.117 -4.398 H 1 FUZI_1    0.000
73 H_28977 -1.179 -7.411 -1.856 H 1 FUZI_1    0.000
74 H_28976 0.940 -6.345 -2.106 H 1 FUZI_1    0.000
75 H_28980 -0.880 -3.123 -4.075 H 1 FUZI_1    0.000
76 H_289451 4.281 -5.470 -3.653 H 1 FUZI_1    0.000
77 H_289452 5.765 -4.601 -4.082 H 1 FUZI_1    0.000
78 H_289441 5.211 -2.729 -2.677 H 1 FUZI_1    0.000
79 H_289442 3.885 -3.010 -3.735 H 1 FUZI_1    0.000
80 H_289751 2.948 -5.689 -1.665 H 1 FUZI_1    0.000
81 H_289752 2.997 -5.018 -0.055 H 1 FUZI_1    0.000
82 H.z21 2.230 -4.726 -3.544 H 1 FUZI_1    0.000
83 H.z22 1.451 -3.249 -4.065 H 1 FUZI_1    0.000
84 H_28934 -6.294 -2.045 1.739 H 1 FUZI_1    0.000
85 H_28933 -5.152 -0.381 3.073 H 1 FUZI_1    0.000
86 H_28932 -2.746 -0.279 3.087 H 1 FUZI_1    0.000
87 H_28930 -2.950 -4.450 -0.311 H 1 FUZI_1    0.000
88 H_28935 -5.032 -3.615 0.416 H 1 FUZI_1    0.000
89 H_28927 -0.686 -1.107 2.354 H 1 FUZI_1    0.000
90 H_28931 -0.557 -4.343 -0.296 H 1 FUZI_1    0.000
91 H.a21 1.378 -2.339 1.997 H 1 FUZI_1    0.000
92 H.a22 1.427 -3.660 0.891 H 1 FUZI_1    0.000
93 H.b21 3.177 -1.376 2.875 H 1 FUZI_1    0.000
94 H.b22 1.973 -1.013 4.094 H 1 FUZI_1    0.000
95 H_28916 -1.693 6.499 1.891 H 1 FUZI_1    0.000
96 H_289171 -2.242 5.760 -0.441 H 1 FUZI_1    0.000
97 H_289172 -1.019 4.718 0.273 H 1 FUZI_1    0.000
98 H_289173 -0.545 5.950 -0.905 H 1 FUZI_1    0.000
99 H.d21 1.138 6.564 0.791 H 1 FUZI_1    0.000
100 H.d22 0.672 7.843 1.846 H 1 FUZI_1    0.000
101 H_289091 1.352 0.241 -0.906 H 1 FUZI_1    0.000
102 H_289092 0.260 -0.099 0.417 H 1 FUZI_1    0.000
103 H_289121 4.117 0.061 -0.223 H 1 FUZI_1    0.000
104 H_289122 4.301 -0.581 1.396 H 1 FUZI_1    0.000
105 H.c -0.304 1.938 1.453 H 1 FUZI_1    0.000
106 H_289181 -1.372 8.897 1.365 H 1 FUZI_1    0.000
107 H_289182 -2.478 8.149 0.209 H 1 FUZI_1    0.000
108 H_289183 -0.803 8.484 -0.262 H 1 FUZI_1    0.000
109 H_289011 -0.853 3.947 2.360 H 1 FUZI_1    0.000
110 H_289012 -0.187 3.384 3.878 H 1 FUZI_1    0.000
111 H_289041 1.198 4.594 0.452 H 1 FUZI_1    0.000
112 H_289042 2.817 4.476 1.179 H 1 FUZI_1    0.000
113 H.e 0.124 5.163 5.582 H 1 FUZI_1    0.000
114 H_288921 0.605 7.005 7.047 H 1 FUZI_1    0.000
115 H_288922 1.987 7.527 6.051 H 1 FUZI_1    0.000
116 H_288941 3.963 5.274 5.762 H 1 FUZI_1    0.000
117 H_288942 3.141 3.828 6.425 H 1 FUZI_1    0.000
118 H_288931 3.144 6.281 7.744 H 1 FUZI_1    0.000
119 H_288932 1.817 5.103 7.871 H 1 FUZI_1    0.000
@<TRIPOS>BOND
1 1 29 1 
2 2 4 1 
3 2 118 1 
4 2 119 1 
5 3 2 1 
6 3 116 1 
7 3 117 1 
8 4 114 1 
9 4 115 1 
10 5 3 1 
11 7 5 1 
12 7 4 1 
13 7 113 1 
14 9 16 1 
15 9 111 1 
16 9 112 1 
17 10 11 1 
18 10 13 1 
19 10 109 1 
20 10 110 1 
21 11 22 1 
22 11 9 1 
23 12 26 1 
24 12 106 1 
25 12 107 1 
26 12 108 1 
27 13 105 1 
28 16 13 1 
29 17 45 1 
30 17 1 1 
31 17 103 1 
32 17 104 1 
33 18 1 1 
34 18 101 1 
35 18 102 1 
36 19 32 2 
37 21 23 1 
38 21 7 1 
39 21 6 2 
40 22 5 1 
41 22 8 2 
42 23 11 1 
43 23 24 1 
44 24 99 1 
45 24 100 1 
46 25 26 1 
47 25 96 1 
48 25 97 1 
49 25 98 1 
50 26 24 1 
51 26 95 1 
52 27 1 1 
53 27 16 1 
54 27 14 2 
55 28 13 1 
56 28 15 2 
57 29 28 1 
58 29 30 1 
59 30 93 1 
60 30 94 1 
61 31 32 1 
62 32 30 1 
63 33 40 2 
64 34 37 1 
65 34 91 1 
66 34 92 1 
67 35 39 2 
68 35 37 1 
69 35 90 1 
70 36 37 2 
71 36 89 1 
72 38 43 2 
73 38 33 1 
74 38 88 1 
75 39 33 1 
76 39 87 1 
77 40 36 1 
78 41 40 1 
79 41 86 1 
80 42 41 2 
81 42 85 1 
82 43 42 1 
83 43 84 1 
84 44 18 1 
85 44 34 1 
86 44 48 1 
87 45 44 1 
88 45 49 1 
89 46 49 2 
90 48 20 2 
91 49 47 1 
92 50 48 1 
93 50 47 1 
94 50 51 1 
95 51 82 1 
96 51 83 1 
97 52 66 1 
98 52 47 1 
99 52 80 1 
100 52 81 1 
101 53 47 1 
102 53 78 1 
103 53 79 1 
104 54 53 1 
105 54 76 1 
106 54 77 1 
107 55 54 1 
108 56 62 1 
109 57 56 2 
110 57 75 1 
111 58 60 2 
112 58 59 1 
113 58 74 1 
114 59 73 1 
115 60 51 1 
116 60 57 1 
117 61 65 2 
118 61 56 1 
119 61 72 1 
120 62 59 2 
121 63 62 1 
122 63 71 1 
123 64 63 2 
124 65 64 1 
125 66 55 1 
126 66 67 1 
127 66 68 1 
128 69 65 1 
129 70 64 1 
@<TRIPOS>SUBSTRUCTURE
1 CKW::FUZI_1 1 RESIDUE 1 CKW::A CKW::FUZI 1
