@<TRIPOS>MOLECULE
COMMON-LISP:NIL
119 129 1 0 0
POLYMER
CHARGES


@<TRIPOS>ATOM
1 C.b -0.450568 2.01251 -0.327181 C.3 1 FUZI_1    0.000
2 C_28893 -3.606 10.544 2.635 C.3 1 FUZI_1    0.000
3 C_28894 -3.161 9.201 3.237 C.3 1 FUZI_1    0.000
4 C_28892 -4.153 10.167 1.254 C.3 1 FUZI_1    0.000
5 N -2.971 8.276 2.112 N.am 1 FUZI_1    0.000
6 O -4.581 8.517 -1.085 O.2 1 FUZI_1    0.000
7 C.e -3.292 8.955 0.861 C.3 1 FUZI_1    0.000
8 O -2.226 6.528 3.270 O.2 1 FUZI_1    0.000
9 C_28904 -2.811 4.635 1.244 C.3 1 FUZI_1    0.000
10 C_28901 -1.278 6.186 0.239 C.3 1 FUZI_1    0.000
11 C.d -2.674 6.155 0.911 C.3 1 FUZI_1    0.000
12 C_28918 -6.401 4.727 -2.026 C.3 1 FUZI_1    0.000
13 C.c -1.150 4.824 -0.456 C.3 1 FUZI_1    0.000
14 O -2.483 1.838 0.980 O.2 1 FUZI_1    0.000
15 O 1.089 5.224 -1.132 O.2 1 FUZI_1    0.000
16 N -1.877 3.892 0.387 N.am 1 FUZI_1    0.000
17 C_28912 -0.941 1.304 -1.608 C.3 1 FUZI_1    0.000
18 C_28909 0.162 0.849 0.513 C.3 1 FUZI_1    0.000
19 O 3.699 1.661 -0.039 O.co2 1 FUZI_1    0.000
20 O 2.102 -1.216 0.687 O.2 1 FUZI_1    0.000
21 C_28900 -3.913 8.049 -0.182 C.2 1 FUZI_1    0.000
22 C_28897 -2.593 6.984 2.203 C.2 1 FUZI_1    0.000
23 N.d -3.702 6.706 -0.049 N.am 1 FUZI_1    0.000
24 C.d2 -4.323 5.774 -1.033 C.3 1 FUZI_1    0.000
25 C_28917 -6.290 5.050 0.478 C.3 1 FUZI_1    0.000
26 C_28916 -5.862 5.622 -0.891 C.3 1 FUZI_1    0.000
27 C_28908 -1.692 2.557 0.397 C.2 1 FUZI_1    0.000
28 C_28905 0.263 4.399 -0.786 C.2 1 FUZI_1    0.000
29 N.b 0.561 3.072 -0.688 N.am 1 FUZI_1    0.000
30 C.b2 1.875 2.585 -1.195 C.3 1 FUZI_1    0.000
31 OH 3.147 3.651 0.486 O.co2 1 FUZI_1    0.000
32 C_28922 3.000 2.645 -0.179 C.2 1 FUZI_1    0.000
33 C_28929 0.071 -4.301 2.938 C.2 1 FUZI_1    0.000
34 C.a2 -1.041 -1.382 0.102 C.3 1 FUZI_1    0.000
35 C_28931 -0.525 -3.710 0.782 C.2 1 FUZI_1    0.000
36 C_28927 -0.410 -2.093 2.414 C.2 1 FUZI_1    0.000
37 C_28926 -0.645 -2.427 1.140 C.2 1 FUZI_1    0.000
38 C_28935 0.432 -5.223 3.836 C.2 1 FUZI_1    0.000
39 C_28930 -0.177 -4.640 1.671 C.2 1 FUZI_1    0.000
40 C_28928 -0.045 -3.014 3.313 C.2 1 FUZI_1    0.000
41 C_28932 0.207 -2.671 4.581 C.2 1 FUZI_1    0.000
42 C_28933 0.573 -3.596 5.469 C.2 1 FUZI_1    0.000
43 C_28934 0.685 -4.871 5.097 C.2 1 FUZI_1    0.000
44 C.a 0.117 -0.438 -0.366 C.3 1 FUZI_1    0.000
45 N -0.205 0.042 -1.708 N.am 1 FUZI_1    0.000
46 O -0.288 -0.118 -3.917 O.2 1 FUZI_1    0.000
47 C_28938 1.237 -1.649 -2.825 C.3 1 FUZI_1    0.000
48 C_28936 1.443 -1.190 -0.335 C.2 1 FUZI_1    0.000
49 C_28939 0.181 -0.527 -2.871 C.2 1 FUZI_1    0.000
50 N.z 1.865 -1.824 -1.466 N.am 1 FUZI_1    0.000
51 C.z2 3.060 -2.720 -1.417 C.3 1 FUZI_1    0.000
52 C_28975 2.330 -1.276 -3.898 C.3 1 FUZI_1    0.000
53 C_28944 0.499 -2.965 -3.227 C.3 1 FUZI_1    0.000
54 C_28945 0.108 -3.033 -4.724 C.3 1 FUZI_1    0.000
55 NH 1.227 -2.667 -5.640 N.2 1 FUZI_1    0.000
56 C_28979 3.660 -4.698 1.689 C.2 1 FUZI_1    0.000
57 C_28980 3.651 -3.708 0.790 C.2 1 FUZI_1    0.000
58 C_28976 2.508 -5.039 -0.694 C.2 1 FUZI_1    0.000
59 C_28977 2.522 -6.040 0.187 C.2 1 FUZI_1    0.000
60 C_28943 3.064 -3.859 -0.403 C.2 1 FUZI_1    0.000
61 C_28984 4.228 -4.529 2.888 C.2 1 FUZI_1    0.000
62 C_28978 3.091 -5.878 1.384 C.2 1 FUZI_1    0.000
63 C_28981 3.102 -6.871 2.279 C.2 1 FUZI_1    0.000
64 C_28982 3.670 -6.692 3.473 C.2 1 FUZI_1    0.000
65 C_28983 4.231 -5.523 3.777 C.2 1 FUZI_1    0.000
66 C_28974 2.523 -2.360 -4.982 C.3 1 FUZI_1    0.000
67 H_289741 3.225 -1.996 -5.736 H 1 FUZI_1    0.000
68 H_289742 2.933 -3.274 -4.545 H 1 FUZI_1    0.000
69 H_28983 4.693 -5.379 4.751 H 1 FUZI_1    0.000
70 H_28982 3.673 -7.502 4.199 H 1 FUZI_1    0.000
71 H_28981 2.645 -7.830 2.045 H 1 FUZI_1    0.000
72 H_28984 4.691 -3.580 3.150 H 1 FUZI_1    0.000
73 H_28977 2.060 -6.989 -0.079 H 1 FUZI_1    0.000
74 H_28976 2.042 -5.204 -1.659 H 1 FUZI_1    0.000
75 H_28980 4.125 -2.760 1.036 H 1 FUZI_1    0.000
76 H_289451 -0.216 -4.051 -4.958 H 1 FUZI_1    0.000
77 H_289452 -0.734 -2.365 -4.918 H 1 FUZI_1    0.000
78 H_289441 -0.394 -3.100 -2.612 H 1 FUZI_1    0.000
79 H_289442 1.136 -3.825 -3.031 H 1 FUZI_1    0.000
80 H_289751 3.294 -1.072 -3.426 H 1 FUZI_1    0.000
81 H_289752 2.087 -0.342 -4.410 H 1 FUZI_1    0.000
82 H.z21 3.928 -2.083 -1.227 H 1 FUZI_1    0.000
83 H.z22 3.224 -3.172 -2.396 H 1 FUZI_1    0.000
84 H_28934 0.982 -5.625 5.822 H 1 FUZI_1    0.000
85 H_28933 0.779 -3.311 6.497 H 1 FUZI_1    0.000
86 H_28932 0.119 -1.634 4.899 H 1 FUZI_1    0.000
87 H_28930 -0.092 -5.676 1.351 H 1 FUZI_1    0.000
88 H_28935 0.525 -6.268 3.546 H 1 FUZI_1    0.000
89 H_28927 -0.509 -1.058 2.726 H 1 FUZI_1    0.000
90 H_28931 -0.712 -4.011 -0.246 H 1 FUZI_1    0.000
91 H.a21 -1.440 -1.906 -0.771 H 1 FUZI_1    0.000
92 H.a22 -1.880 -0.793 0.479 H 1 FUZI_1    0.000
93 H.b21 2.187 3.191 -2.050 H 1 FUZI_1    0.000
94 H.b22 1.808 1.554 -1.543 H 1 FUZI_1    0.000
95 H_28916 -6.326 6.604 -0.999 H 1 FUZI_1    0.000
96 H_289171 -7.379 5.044 0.561 H 1 FUZI_1    0.000
97 H_289172 -5.896 5.656 1.297 H 1 FUZI_1    0.000
98 H_289173 -5.939 4.022 0.600 H 1 FUZI_1    0.000
99 H.d21 -3.876 4.782 -0.995 H 1 FUZI_1    0.000
100 H.d22 -4.108 6.163 -2.032 H 1 FUZI_1    0.000
101 H_289091 -0.372 0.700 1.451 H 1 FUZI_1    0.000
102 H_289092 1.175 1.089 0.826 H 1 FUZI_1    0.000
103 H_289121 -2.007 1.070 -1.545 H 1 FUZI_1    0.000
104 H_289122 -0.767 1.931 -2.487 H 1 FUZI_1    0.000
105 H.c -1.672 4.865 -1.415 H 1 FUZI_1    0.000
106 H_289181 -5.972 3.723 -1.967 H 1 FUZI_1    0.000
107 H_289182 -6.150 5.151 -3.001 H 1 FUZI_1    0.000
108 H_289183 -7.489 4.641 -1.965 H 1 FUZI_1    0.000
109 H_289011 -0.495 6.273 0.999 H 1 FUZI_1    0.000
110 H_289012 -1.164 7.015 -0.464 H 1 FUZI_1    0.000
111 H_289041 -2.524 4.420 2.275 H 1 FUZI_1    0.000
112 H_289042 -3.827 4.271 1.105 H 1 FUZI_1    0.000
113 H.e -2.348 9.311 0.438 H 1 FUZI_1    0.000
114 H_288921 -5.202 9.871 1.343 H 1 FUZI_1    0.000
115 H_288922 -4.070 10.986 0.536 H 1 FUZI_1    0.000
116 H_288941 -2.232 9.316 3.802 H 1 FUZI_1    0.000
117 H_288942 -3.945 8.805 3.888 H 1 FUZI_1    0.000
118 H_288931 -2.740 11.200 2.521 H 1 FUZI_1    0.000
119 H_288932 -4.354 11.047 3.254 H 1 FUZI_1    0.000
@<TRIPOS>BOND
1 1 29 1 
2 2 4 1 
3 2 118 1 
4 2 119 1 
5 3 2 1 
6 3 116 1 
7 3 117 1 
8 4 114 1 
9 4 115 1 
10 5 3 1 
11 7 5 1 
12 7 4 1 
13 7 113 1 
14 9 16 1 
15 9 111 1 
16 9 112 1 
17 10 11 1 
18 10 13 1 
19 10 109 1 
20 10 110 1 
21 11 22 1 
22 11 9 1 
23 12 26 1 
24 12 106 1 
25 12 107 1 
26 12 108 1 
27 13 105 1 
28 16 13 1 
29 17 45 1 
30 17 1 1 
31 17 103 1 
32 17 104 1 
33 18 1 1 
34 18 101 1 
35 18 102 1 
36 19 32 2 
37 21 23 1 
38 21 7 1 
39 21 6 2 
40 22 5 1 
41 22 8 2 
42 23 11 1 
43 23 24 1 
44 24 99 1 
45 24 100 1 
46 25 26 1 
47 25 96 1 
48 25 97 1 
49 25 98 1 
50 26 24 1 
51 26 95 1 
52 27 1 1 
53 27 16 1 
54 27 14 2 
55 28 13 1 
56 28 15 2 
57 29 28 1 
58 29 30 1 
59 30 93 1 
60 30 94 1 
61 31 32 1 
62 32 30 1 
63 33 40 2 
64 34 37 1 
65 34 91 1 
66 34 92 1 
67 35 39 2 
68 35 37 1 
69 35 90 1 
70 36 37 2 
71 36 89 1 
72 38 43 2 
73 38 33 1 
74 38 88 1 
75 39 33 1 
76 39 87 1 
77 40 36 1 
78 41 40 1 
79 41 86 1 
80 42 41 2 
81 42 85 1 
82 43 42 1 
83 43 84 1 
84 44 18 1 
85 44 34 1 
86 44 48 1 
87 45 44 1 
88 45 49 1 
89 46 49 2 
90 48 20 2 
91 49 47 1 
92 50 48 1 
93 50 47 1 
94 50 51 1 
95 51 82 1 
96 51 83 1 
97 52 66 1 
98 52 47 1 
99 52 80 1 
100 52 81 1 
101 53 47 1 
102 53 78 1 
103 53 79 1 
104 54 53 1 
105 54 76 1 
106 54 77 1 
107 55 54 1 
108 56 62 1 
109 57 56 2 
110 57 75 1 
111 58 60 2 
112 58 59 1 
113 58 74 1 
114 59 73 1 
115 60 51 1 
116 60 57 1 
117 61 65 2 
118 61 56 1 
119 61 72 1 
120 62 59 2 
121 63 62 1 
122 63 71 1 
123 64 63 2 
124 65 64 1 
125 66 55 1 
126 66 67 1 
127 66 68 1 
128 69 65 1 
129 70 64 1 
@<TRIPOS>SUBSTRUCTURE
1 CKW::FUZI_1 1 RESIDUE 1 CKW::A CKW::FUZI 1
