@<TRIPOS>MOLECULE
NIL
3808 4128 32 0 0
POLYMER
CHARGES


@<TRIPOS>ATOM
1 C.b 0.325823 1.63479 -0.419073 C.3 1 CKW::FUZI_1    0.000
2 C_28893 7.049 6.336 -4.549 C.3 1 CKW::FUZI_1    0.000
3 C_28894 6.589 5.124 -3.723 C.3 1 CKW::FUZI_1    0.000
4 C_28892 6.169 7.484 -4.039 C.3 1 CKW::FUZI_1    0.000
5 N 5.245 5.438 -3.221 N.am 1 CKW::FUZI_1    0.000
6 O 3.933 8.736 -2.705 O.2 1 CKW::FUZI_1    0.000
7 C.e 4.859 6.772 -3.667 C.3 1 CKW::FUZI_1    0.000
8 O 4.851 3.510 -2.182 O.2 1 CKW::FUZI_1    0.000
9 C_28904 2.881 4.532 -0.502 C.3 1 CKW::FUZI_1    0.000
10 C_28901 2.029 4.849 -2.726 C.3 1 CKW::FUZI_1    0.000
11 C.d 3.218 5.276 -1.834 C.3 1 CKW::FUZI_1    0.000
12 C_28918 4.166 8.813 0.474 C.3 1 CKW::FUZI_1    0.000
13 C.c 1.690 3.427 -2.250 C.3 1 CKW::FUZI_1    0.000
14 O 1.905 2.509 1.199 O.2 1 CKW::FUZI_1    0.000
15 O -0.264 3.341 -3.595 O.2 1 CKW::FUZI_1    0.000
16 N 1.999 3.404 -0.830 N.am 1 CKW::FUZI_1    0.000
17 C_28912 -0.736 1.552 0.717 C.3 1 CKW::FUZI_1    0.000
18 C_28909 0.862 0.181 -0.526 C.3 1 CKW::FUZI_1    0.000
19 O -0.723 -0.078 -3.730 O.co2 1 CKW::FUZI_1    0.000
20 O 0.674 -2.714 -0.490 O.2 1 CKW::FUZI_1    0.000
21 C_28900 3.990 7.521 -2.677 C.2 1 CKW::FUZI_1    0.000
22 C_28897 4.493 4.648 -2.425 C.2 1 CKW::FUZI_1    0.000
23 N.d 3.298 6.778 -1.765 N.am 1 CKW::FUZI_1    0.000
24 C.d2 2.396 7.446 -0.791 C.3 1 CKW::FUZI_1    0.000
25 C_28917 1.970 8.224 1.577 C.3 1 CKW::FUZI_1    0.000
26 C_28916 3.051 7.751 0.584 C.3 1 CKW::FUZI_1    0.000
27 C_28908 1.476 2.537 0.060 C.2 1 CKW::FUZI_1    0.000
28 C_28905 0.298 2.946 -2.591 C.2 1 CKW::FUZI_1    0.000
29 N.b -0.287 2.067 -1.727 N.am 1 CKW::FUZI_1    0.000
30 C.b2 -1.567 1.396 -2.094 C.3 1 CKW::FUZI_1    0.000
31 OH -2.425 1.089 -4.262 O.co2 1 CKW::FUZI_1    0.000
32 C_28922 -1.575 0.746 -3.465 C.2 1 CKW::FUZI_1    0.000
33 C_28929 -0.628 -2.994 4.967 C.2 1 CKW::FUZI_1    0.000
34 C.a2 1.088 -0.824 1.792 C.3 1 CKW::FUZI_1    0.000
35 C_28931 0.649 -2.928 3.038 C.2 1 CKW::FUZI_1    0.000
36 C_28927 -0.260 -0.984 3.870 C.2 1 CKW::FUZI_1    0.000
37 C_28926 0.464 -1.608 2.935 C.2 1 CKW::FUZI_1    0.000
38 C_28935 -1.185 -3.675 5.974 C.2 1 CKW::FUZI_1    0.000
39 C_28930 0.108 -3.617 4.043 C.2 1 CKW::FUZI_1    0.000
40 C_28928 -0.812 -1.663 4.881 C.2 1 CKW::FUZI_1    0.000
41 C_28932 -1.550 -1.036 5.803 C.2 1 CKW::FUZI_1    0.000
42 C_28933 -2.102 -1.724 6.804 C.2 1 CKW::FUZI_1    0.000
43 C_28934 -1.919 -3.042 6.889 C.2 1 CKW::FUZI_1    0.000
44 C.a 0.141 -0.657 0.563 C.3 1 CKW::FUZI_1    0.000
45 N -1.033 0.132 0.926 N.am 1 CKW::FUZI_1    0.000
46 O -3.071 0.401 1.749 O.2 1 CKW::FUZI_1    0.000
47 C_28938 -2.607 -1.792 0.837 C.3 1 CKW::FUZI_1    0.000
48 C_28936 -0.199 -2.037 0.026 C.2 1 CKW::FUZI_1    0.000
49 C_28939 -2.261 -0.343 1.226 C.2 1 CKW::FUZI_1    0.000
50 N.z -1.476 -2.501 0.141 N.am 1 CKW::FUZI_1    0.000
51 C.z2 -1.777 -3.879 -0.328 C.3 1 CKW::FUZI_1    0.000
52 C_28975 -3.853 -1.685 -0.116 C.3 1 CKW::FUZI_1    0.000
53 C_28944 -2.987 -2.549 2.155 C.3 1 CKW::FUZI_1    0.000
54 C_28945 -4.367 -3.241 2.102 C.3 1 CKW::FUZI_1    0.000
55 NH -5.429 -2.250 1.798 N.2 1 CKW::FUZI_1    0.000
56 C_28979 -1.118 -5.549 -3.582 C.2 1 CKW::FUZI_1    0.000
57 C_28980 -1.247 -5.308 -2.273 C.2 1 CKW::FUZI_1    0.000
58 C_28976 -1.926 -3.156 -2.719 C.2 1 CKW::FUZI_1    0.000
59 C_28977 -1.802 -3.382 -4.027 C.2 1 CKW::FUZI_1    0.000
60 C_28943 -1.649 -4.114 -1.826 C.2 1 CKW::FUZI_1    0.000
61 C_28984 -0.713 -6.746 -4.022 C.2 1 CKW::FUZI_1    0.000
62 C_28978 -1.398 -4.576 -4.469 C.2 1 CKW::FUZI_1    0.000
63 C_28981 -1.269 -4.815 -5.778 C.2 1 CKW::FUZI_1    0.000
64 C_28982 -0.865 -6.011 -6.207 C.2 1 CKW::FUZI_1    0.000
65 C_28983 -0.588 -6.976 -5.329 C.2 1 CKW::FUZI_1    0.000
66 C_28974 -5.194 -1.389 0.604 C.3 1 CKW::FUZI_1    0.000
67 H_289741 -5.232 -0.344 0.917 H 1 CKW::FUZI_1    0.000
68 H_289742 -6.012 -1.547 -0.103 H 1 CKW::FUZI_1    0.000
69 H_28983 -0.258 -7.951 -5.680 H 1 CKW::FUZI_1    0.000
70 H_28982 -0.762 -6.200 -7.272 H 1 CKW::FUZI_1    0.000
71 H_28981 -1.492 -4.036 -6.505 H 1 CKW::FUZI_1    0.000
72 H_28984 -0.483 -7.543 -3.317 H 1 CKW::FUZI_1    0.000
73 H_28977 -2.032 -2.583 -4.729 H 1 CKW::FUZI_1    0.000
74 H_28976 -2.253 -2.173 -2.391 H 1 CKW::FUZI_1    0.000
75 H_28980 -1.020 -6.095 -1.556 H 1 CKW::FUZI_1    0.000
76 H_289451 -4.379 -4.029 1.346 H 1 CKW::FUZI_1    0.000
77 H_289452 -4.577 -3.695 3.074 H 1 CKW::FUZI_1    0.000
78 H_289441 -2.999 -1.863 3.005 H 1 CKW::FUZI_1    0.000
79 H_289442 -2.232 -3.301 2.393 H 1 CKW::FUZI_1    0.000
80 H_289751 -4.009 -2.609 -0.671 H 1 CKW::FUZI_1    0.000
81 H_289752 -3.676 -0.915 -0.871 H 1 CKW::FUZI_1    0.000
82 H.z21 -2.773 -4.190 -0.015 H 1 CKW::FUZI_1    0.000
83 H.z22 -1.082 -4.547 0.191 H 1 CKW::FUZI_1    0.000
84 H_28934 -2.370 -3.600 7.706 H 1 CKW::FUZI_1    0.000
85 H_28933 -2.702 -1.209 7.551 H 1 CKW::FUZI_1    0.000
86 H_28932 -1.709 0.039 5.745 H 1 CKW::FUZI_1    0.000
87 H_28930 0.269 -4.691 4.098 H 1 CKW::FUZI_1    0.000
88 H_28935 -1.044 -4.751 6.056 H 1 CKW::FUZI_1    0.000
89 H_28927 -0.409 0.092 3.799 H 1 CKW::FUZI_1    0.000
90 H_28931 1.243 -3.454 2.294 H 1 CKW::FUZI_1    0.000
91 H.a21 1.390 0.157 2.163 H 1 CKW::FUZI_1    0.000
92 H.a22 2.010 -1.318 1.476 H 1 CKW::FUZI_1    0.000
93 H.b21 -2.371 2.137 -2.067 H 1 CKW::FUZI_1    0.000
94 H.b22 -1.817 0.592 -1.404 H 1 CKW::FUZI_1    0.000
95 H_28916 3.498 6.840 0.985 H 1 CKW::FUZI_1    0.000
96 H_289171 2.407 8.415 2.560 H 1 CKW::FUZI_1    0.000
97 H_289172 1.197 7.460 1.695 H 1 CKW::FUZI_1    0.000
98 H_289173 1.494 9.143 1.226 H 1 CKW::FUZI_1    0.000
99 H.d21 1.507 6.829 -0.642 H 1 CKW::FUZI_1    0.000
100 H.d22 2.033 8.384 -1.219 H 1 CKW::FUZI_1    0.000
101 H_289091 1.949 0.137 -0.416 H 1 CKW::FUZI_1    0.000
102 H_289092 0.643 -0.227 -1.514 H 1 CKW::FUZI_1    0.000
103 H_289121 -0.367 1.956 1.662 H 1 CKW::FUZI_1    0.000
104 H_289122 -1.641 2.103 0.448 H 1 CKW::FUZI_1    0.000
105 H.c 2.369 2.720 -2.734 H 1 CKW::FUZI_1    0.000
106 H_289181 4.990 8.450 -0.145 H 1 CKW::FUZI_1    0.000
107 H_289182 4.573 9.044 1.462 H 1 CKW::FUZI_1    0.000
108 H_289183 3.783 9.738 0.037 H 1 CKW::FUZI_1    0.000
109 H_289011 2.272 4.876 -3.791 H 1 CKW::FUZI_1    0.000
110 H_289012 1.170 5.503 -2.553 H 1 CKW::FUZI_1    0.000
111 H_289041 3.788 4.178 -0.003 H 1 CKW::FUZI_1    0.000
112 H_289042 2.328 5.150 0.203 H 1 CKW::FUZI_1    0.000
113 H.e 4.254 6.644 -4.569 H 1 CKW::FUZI_1    0.000
114 H_288921 6.624 7.928 -3.150 H 1 CKW::FUZI_1    0.000
115 H_288922 6.021 8.260 -4.794 H 1 CKW::FUZI_1    0.000
116 H_288941 6.569 4.219 -4.337 H 1 CKW::FUZI_1    0.000
117 H_288942 7.258 4.978 -2.870 H 1 CKW::FUZI_1    0.000
118 H_288931 6.845 6.158 -5.607 H 1 CKW::FUZI_1    0.000
119 H_288932 8.114 6.543 -4.422 H 1 CKW::FUZI_1    0.000
120 C.b 0.808 19.840 1.942 C.3 2 CKW::FUZI_2    0.000
121 C_28893 9.402 20.680 -0.858 C.3 2 CKW::FUZI_2    0.000
122 C_28894 7.908 20.814 -1.194 C.3 2 CKW::FUZI_2    0.000
123 C_28892 9.500 19.323 -0.152 C.3 2 CKW::FUZI_2    0.000
124 N 7.188 19.926 -0.273 N.am 2 CKW::FUZI_2    0.000
125 O 8.537 16.923 1.119 O.2 2 CKW::FUZI_2    0.000
126 C.e 8.145 19.207 0.566 C.3 2 CKW::FUZI_2    0.000
127 O 5.113 20.408 -0.934 O.2 2 CKW::FUZI_2    0.000
128 C_28904 3.903 18.216 0.291 C.3 2 CKW::FUZI_2    0.000
129 C_28901 5.080 19.289 2.078 C.3 2 CKW::FUZI_2    0.000
130 C.d 5.352 18.627 0.705 C.3 2 CKW::FUZI_2    0.000
131 C_28918 4.751 14.262 2.198 C.3 2 CKW::FUZI_2    0.000
132 C.c 3.707 19.959 1.906 C.3 2 CKW::FUZI_2    0.000
133 O 1.110 18.401 0.007 O.2 2 CKW::FUZI_2    0.000
134 O 3.587 20.509 4.213 O.2 2 CKW::FUZI_2    0.000
135 N 2.969 19.113 0.986 N.am 2 CKW::FUZI_2    0.000
136 C_28912 -0.427 18.964 2.280 C.3 2 CKW::FUZI_2    0.000
137 C_28909 0.174 21.051 1.218 C.3 2 CKW::FUZI_2    0.000
138 O 1.357 23.040 4.011 O.co2 2 CKW::FUZI_2    0.000
139 O -0.699 21.424 -1.475 O.2 2 CKW::FUZI_2    0.000
140 C_28900 7.712 17.786 0.879 C.2 2 CKW::FUZI_2    0.000
141 C_28897 5.851 19.737 -0.235 C.2 2 CKW::FUZI_2    0.000
142 N.d 6.372 17.527 0.840 N.am 2 CKW::FUZI_2    0.000
143 C.d2 5.879 16.125 0.916 C.3 2 CKW::FUZI_2    0.000
144 C_28917 6.365 15.787 3.408 C.3 2 CKW::FUZI_2    0.000
145 C_28916 5.301 15.700 2.291 C.3 2 CKW::FUZI_2    0.000
146 C_28908 1.625 19.066 0.888 C.2 2 CKW::FUZI_2    0.000
147 C_28905 2.972 20.265 3.192 C.2 2 CKW::FUZI_2    0.000
148 N.b 1.609 20.252 3.148 N.am 2 CKW::FUZI_2    0.000
149 C.b2 0.819 20.763 4.301 C.3 2 CKW::FUZI_2    0.000
150 OH 1.475 22.260 5.992 O.co2 2 CKW::FUZI_2    0.000
151 C_28922 1.246 22.128 4.807 C.2 2 CKW::FUZI_2    0.000
152 C_28929 -2.866 21.911 5.326 C.2 2 CKW::FUZI_2    0.000
153 C.a2 -2.342 21.571 1.157 C.3 2 CKW::FUZI_2    0.000
154 C_28931 -3.208 20.763 3.346 C.2 2 CKW::FUZI_2    0.000
155 C_28927 -2.046 22.749 3.326 C.2 2 CKW::FUZI_2    0.000
156 C_28926 -2.530 21.692 2.664 C.2 2 CKW::FUZI_2    0.000
157 C_28935 -3.014 22.022 6.651 C.2 2 CKW::FUZI_2    0.000
158 C_28930 -3.370 20.866 4.665 C.2 2 CKW::FUZI_2    0.000
159 C_28928 -2.201 22.865 4.649 C.2 2 CKW::FUZI_2    0.000
160 C_28932 -1.697 23.915 5.307 C.2 2 CKW::FUZI_2    0.000
161 C_28933 -1.849 24.016 6.628 C.2 2 CKW::FUZI_2    0.000
162 C_28934 -2.506 23.071 7.299 C.2 2 CKW::FUZI_2    0.000
163 C.a -1.222 20.584 0.692 C.3 2 CKW::FUZI_2    0.000
164 N -1.427 19.238 1.240 N.am 2 CKW::FUZI_2    0.000
165 O -2.410 17.252 1.325 O.2 2 CKW::FUZI_2    0.000
166 C_28938 -2.717 18.466 -0.742 C.3 2 CKW::FUZI_2    0.000
167 C_28936 -1.292 20.578 -0.830 C.2 2 CKW::FUZI_2    0.000
168 C_28939 -2.193 18.270 0.692 C.2 2 CKW::FUZI_2    0.000
169 N.z -2.064 19.631 -1.444 N.am 2 CKW::FUZI_2    0.000
170 C.z2 -2.318 19.739 -2.909 C.3 2 CKW::FUZI_2    0.000
171 C_28975 -4.261 18.678 -0.593 C.3 2 CKW::FUZI_2    0.000
172 C_28944 -2.414 17.107 -1.476 C.3 2 CKW::FUZI_2    0.000
173 C_28945 -3.573 16.093 -1.352 C.3 2 CKW::FUZI_2    0.000
174 NH -4.812 16.630 -1.978 N.2 2 CKW::FUZI_2    0.000
175 C_28979 -4.415 22.770 -3.459 C.2 2 CKW::FUZI_2    0.000
176 C_28980 -3.983 21.585 -3.017 C.2 2 CKW::FUZI_2    0.000
177 C_28976 -2.075 21.788 -4.286 C.2 2 CKW::FUZI_2    0.000
178 C_28977 -2.493 22.971 -4.735 C.2 2 CKW::FUZI_2    0.000
179 C_28943 -2.811 21.084 -3.421 C.2 2 CKW::FUZI_2    0.000
180 C_28984 -5.587 23.268 -3.049 C.2 2 CKW::FUZI_2    0.000
181 C_28978 -3.663 23.471 -4.327 C.2 2 CKW::FUZI_2    0.000
182 C_28981 -4.093 24.658 -4.770 C.2 2 CKW::FUZI_2    0.000
183 C_28982 -5.263 25.146 -4.354 C.2 2 CKW::FUZI_2    0.000
184 C_28983 -6.009 24.451 -3.495 C.2 2 CKW::FUZI_2    0.000
185 C_28974 -5.109 18.072 -1.737 C.3 2 CKW::FUZI_2    0.000
186 H_289741 -6.165 18.162 -1.470 H 2 CKW::FUZI_2    0.000
187 H_289742 -4.959 18.627 -2.663 H 2 CKW::FUZI_2    0.000
188 H_28983 -6.962 24.851 -3.157 H 2 CKW::FUZI_2    0.000
189 H_28982 -5.609 26.111 -4.717 H 2 CKW::FUZI_2    0.000
190 H_28981 -3.495 25.235 -5.471 H 2 CKW::FUZI_2    0.000
191 H_28984 -6.206 22.712 -2.347 H 2 CKW::FUZI_2    0.000
192 H_28977 -1.872 23.524 -5.437 H 2 CKW::FUZI_2    0.000
193 H_28976 -1.118 21.400 -4.629 H 2 CKW::FUZI_2    0.000
194 H_28980 -4.594 21.021 -2.319 H 2 CKW::FUZI_2    0.000
195 H_289451 -3.296 15.168 -1.864 H 2 CKW::FUZI_2    0.000
196 H_289452 -3.772 15.859 -0.304 H 2 CKW::FUZI_2    0.000
197 H_289441 -1.498 16.661 -1.080 H 2 CKW::FUZI_2    0.000
198 H_289442 -2.216 17.233 -2.540 H 2 CKW::FUZI_2    0.000
199 H_289751 -4.491 19.739 -0.489 H 2 CKW::FUZI_2    0.000
200 H_289752 -4.615 18.214 0.331 H 2 CKW::FUZI_2    0.000
201 H.z21 -3.047 18.999 -3.229 H 2 CKW::FUZI_2    0.000
202 H.z22 -1.381 19.486 -3.413 H 2 CKW::FUZI_2    0.000
203 H_28934 -2.629 23.155 8.376 H 2 CKW::FUZI_2    0.000
204 H_28933 -1.435 24.870 7.158 H 2 CKW::FUZI_2    0.000
205 H_28932 -1.156 24.693 4.773 H 2 CKW::FUZI_2    0.000
206 H_28930 -3.917 20.089 5.195 H 2 CKW::FUZI_2    0.000
207 H_28935 -3.550 21.258 7.211 H 2 CKW::FUZI_2    0.000
208 H_28927 -1.505 23.520 2.780 H 2 CKW::FUZI_2    0.000
209 H_28931 -3.629 19.905 2.827 H 2 CKW::FUZI_2    0.000
210 H.a21 -3.294 21.264 0.721 H 2 CKW::FUZI_2    0.000
211 H.a22 -2.136 22.559 0.737 H 2 CKW::FUZI_2    0.000
212 H.b21 0.902 20.053 5.129 H 2 CKW::FUZI_2    0.000
213 H.b22 -0.231 20.880 4.045 H 2 CKW::FUZI_2    0.000
214 H_28916 4.468 16.353 2.555 H 2 CKW::FUZI_2    0.000
215 H_289171 5.944 15.464 4.363 H 2 CKW::FUZI_2    0.000
216 H_289172 6.720 16.812 3.532 H 2 CKW::FUZI_2    0.000
217 H_289173 7.223 15.151 3.178 H 2 CKW::FUZI_2    0.000
218 H.d21 6.701 15.445 0.677 H 2 CKW::FUZI_2    0.000
219 H.d22 5.140 15.957 0.131 H 2 CKW::FUZI_2    0.000
220 H_289091 0.838 21.408 0.427 H 2 CKW::FUZI_2    0.000
221 H_289092 0.066 21.888 1.905 H 2 CKW::FUZI_2    0.000
222 H_289121 -0.147 17.907 2.285 H 2 CKW::FUZI_2    0.000
223 H_289122 -0.879 19.193 3.244 H 2 CKW::FUZI_2    0.000
224 H.c 3.843 20.924 1.410 H 2 CKW::FUZI_2    0.000
225 H_289181 5.544 13.556 1.942 H 2 CKW::FUZI_2    0.000
226 H_289182 3.973 14.199 1.433 H 2 CKW::FUZI_2    0.000
227 H_289183 4.312 13.956 3.151 H 2 CKW::FUZI_2    0.000
228 H_289011 5.849 20.012 2.359 H 2 CKW::FUZI_2    0.000
229 H_289012 5.020 18.534 2.864 H 2 CKW::FUZI_2    0.000
230 H_289041 3.763 18.273 -0.792 H 2 CKW::FUZI_2    0.000
231 H_289042 3.640 17.213 0.623 H 2 CKW::FUZI_2    0.000
232 H.e 8.200 19.734 1.523 H 2 CKW::FUZI_2    0.000
233 H_288921 9.602 18.530 -0.899 H 2 CKW::FUZI_2    0.000
234 H_288922 10.343 19.274 0.540 H 2 CKW::FUZI_2    0.000
235 H_288941 7.573 21.847 -1.075 H 2 CKW::FUZI_2    0.000
236 H_288942 7.725 20.479 -2.219 H 2 CKW::FUZI_2    0.000
237 H_288931 9.695 21.476 -0.168 H 2 CKW::FUZI_2    0.000
238 H_288932 10.033 20.732 -1.748 H 2 CKW::FUZI_2    0.000
239 C.b 1.387 39.586 1.370 C.3 3 CKW::FUZI_3    0.000
240 C_28893 -7.680 38.595 1.347 C.3 3 CKW::FUZI_3    0.000
241 C_28894 -6.328 38.619 0.616 C.3 3 CKW::FUZI_3    0.000
242 C_28892 -7.542 39.689 2.412 C.3 3 CKW::FUZI_3    0.000
243 N -5.366 39.259 1.524 N.am 3 CKW::FUZI_3    0.000
244 O -6.190 41.575 4.135 O.2 3 CKW::FUZI_3    0.000
245 C.e -6.044 39.646 2.755 C.3 3 CKW::FUZI_3    0.000
246 O -3.561 39.055 0.241 O.2 3 CKW::FUZI_3    0.000
247 C_28904 -2.159 41.111 1.480 C.3 3 CKW::FUZI_3    0.000
248 C_28901 -2.502 39.460 3.191 C.3 3 CKW::FUZI_3    0.000
249 C.d -3.307 40.393 2.255 C.3 3 CKW::FUZI_3    0.000
250 C_28918 -3.365 44.981 3.859 C.3 3 CKW::FUZI_3    0.000
251 C.c -1.249 39.090 2.378 C.3 3 CKW::FUZI_3    0.000
252 O 0.382 41.590 0.413 O.2 3 CKW::FUZI_3    0.000
253 O -0.221 38.033 4.244 O.2 3 CKW::FUZI_3    0.000
254 N -0.970 40.256 1.555 N.am 3 CKW::FUZI_3    0.000
255 C_28912 1.391 38.533 0.246 C.3 3 CKW::FUZI_3    0.000
256 C_28909 2.754 40.284 1.078 C.3 3 CKW::FUZI_3    0.000
257 O 2.592 36.350 2.765 O.co2 3 CKW::FUZI_3    0.000
258 O 3.927 42.256 -0.804 O.2 3 CKW::FUZI_3    0.000
259 C_28900 -5.500 40.913 3.382 C.2 3 CKW::FUZI_3    0.000
260 C_28897 -4.067 39.504 1.254 C.2 3 CKW::FUZI_3    0.000
261 N.d -4.226 41.278 3.055 N.am 3 CKW::FUZI_3    0.000
262 C.d2 -3.621 42.465 3.714 C.3 3 CKW::FUZI_3    0.000
263 C_28917 -3.854 43.959 1.601 C.3 3 CKW::FUZI_3    0.000
264 C_28916 -4.079 43.828 3.124 C.3 3 CKW::FUZI_3    0.000
265 C_28908 0.241 40.566 1.053 C.2 3 CKW::FUZI_3    0.000
266 C_28905 -0.056 38.631 3.198 C.2 3 CKW::FUZI_3    0.000
267 N.b 1.186 38.930 2.711 N.am 3 CKW::FUZI_3    0.000
268 C.b2 2.396 38.577 3.497 C.3 3 CKW::FUZI_3    0.000
269 OH 4.346 37.557 2.658 O.co2 3 CKW::FUZI_3    0.000
270 C_28922 3.173 37.405 2.930 C.2 3 CKW::FUZI_3    0.000
271 C_28929 5.327 38.496 -4.652 C.2 3 CKW::FUZI_3    0.000
272 C.a2 4.399 39.370 -0.639 C.3 3 CKW::FUZI_3    0.000
273 C_28931 5.448 39.912 -2.825 C.2 3 CKW::FUZI_3    0.000
274 C_28927 4.324 37.912 -2.644 C.2 3 CKW::FUZI_3    0.000
275 C_28926 4.728 39.059 -2.089 C.2 3 CKW::FUZI_3    0.000
276 C_28935 5.611 38.211 -5.927 C.2 3 CKW::FUZI_3    0.000
277 C_28930 5.744 39.636 -4.095 C.2 3 CKW::FUZI_3    0.000
278 C_28928 4.611 37.624 -3.918 C.2 3 CKW::FUZI_3    0.000
279 C_28932 4.189 36.482 -4.473 C.2 3 CKW::FUZI_3    0.000
280 C_28933 4.476 36.207 -5.746 C.2 3 CKW::FUZI_3    0.000
281 C_28934 5.186 37.070 -6.472 C.2 3 CKW::FUZI_3    0.000
282 C.a 3.028 40.093 -0.449 C.3 3 CKW::FUZI_3    0.000
283 N 1.941 39.231 -0.919 N.am 3 CKW::FUZI_3    0.000
284 O 0.548 38.452 -2.449 O.2 3 CKW::FUZI_3    0.000
285 C_28938 1.313 40.721 -2.812 C.3 3 CKW::FUZI_3    0.000
286 C_28936 3.076 41.450 -1.136 C.2 3 CKW::FUZI_3    0.000
287 C_28939 1.247 39.373 -2.068 C.2 3 CKW::FUZI_3    0.000
288 N.z 2.154 41.748 -2.097 N.am 3 CKW::FUZI_3    0.000
289 C.z2 2.033 43.157 -2.578 C.3 3 CKW::FUZI_3    0.000
290 C_28975 -0.181 41.187 -2.981 C.3 3 CKW::FUZI_3    0.000
291 C_28944 1.944 40.446 -4.214 C.3 3 CKW::FUZI_3    0.000
292 C_28945 0.968 39.797 -5.225 C.3 3 CKW::FUZI_3    0.000
293 NH -0.290 40.578 -5.400 N.2 3 CKW::FUZI_3    0.000
294 C_28979 -0.795 45.341 -1.506 C.2 3 CKW::FUZI_3    0.000
295 C_28980 0.011 44.565 -2.239 C.2 3 CKW::FUZI_3    0.000
296 C_28976 1.470 44.382 -0.474 C.2 3 CKW::FUZI_3    0.000
297 C_28977 0.678 45.157 0.268 C.2 3 CKW::FUZI_3    0.000
298 C_28943 1.144 44.065 -1.732 C.2 3 CKW::FUZI_3    0.000
299 C_28984 -1.934 45.821 -2.018 C.2 3 CKW::FUZI_3    0.000
300 C_28978 -0.460 45.638 -0.238 C.2 3 CKW::FUZI_3    0.000
301 C_28981 -1.265 46.411 0.498 C.2 3 CKW::FUZI_3    0.000
302 C_28982 -2.399 46.885 -0.020 C.2 3 CKW::FUZI_3    0.000
303 C_28983 -2.733 46.590 -1.276 C.2 3 CKW::FUZI_3    0.000
304 C_28974 -0.531 41.662 -4.411 C.3 3 CKW::FUZI_3    0.000
305 H_289741 -1.589 41.936 -4.445 H 3 CKW::FUZI_3    0.000
306 H_289742 0.055 42.537 -4.693 H 3 CKW::FUZI_3    0.000
307 H_28983 -3.658 46.977 -1.697 H 3 CKW::FUZI_3    0.000
308 H_28982 -3.051 47.512 0.583 H 3 CKW::FUZI_3    0.000
309 H_28981 -1.005 46.658 1.526 H 3 CKW::FUZI_3    0.000
310 H_28984 -2.220 45.588 -3.041 H 3 CKW::FUZI_3    0.000
311 H_28977 0.968 45.390 1.290 H 3 CKW::FUZI_3    0.000
312 H_28976 2.385 44.009 -0.029 H 3 CKW::FUZI_3    0.000
313 H_28980 -0.265 44.328 -3.264 H 3 CKW::FUZI_3    0.000
314 H_289451 1.466 39.722 -6.195 H 3 CKW::FUZI_3    0.000
315 H_289452 0.711 38.785 -4.905 H 3 CKW::FUZI_3    0.000
316 H_289441 2.817 39.806 -4.107 H 3 CKW::FUZI_3    0.000
317 H_289442 2.308 41.373 -4.661 H 3 CKW::FUZI_3    0.000
318 H_289751 -0.434 41.956 -2.254 H 3 CKW::FUZI_3    0.000
319 H_289752 -0.879 40.379 -2.754 H 3 CKW::FUZI_3    0.000
320 H.z21 1.678 43.165 -3.607 H 3 CKW::FUZI_3    0.000
321 H.z22 3.032 43.599 -2.619 H 3 CKW::FUZI_3    0.000
322 H_28934 5.418 36.844 -7.510 H 3 CKW::FUZI_3    0.000
323 H_28933 4.130 35.278 -6.191 H 3 CKW::FUZI_3    0.000
324 H_28932 3.608 35.769 -3.892 H 3 CKW::FUZI_3    0.000
325 H_28930 6.327 40.351 -4.673 H 3 CKW::FUZI_3    0.000
326 H_28935 6.189 38.907 -6.532 H 3 CKW::FUZI_3    0.000
327 H_28927 3.745 37.207 -2.050 H 3 CKW::FUZI_3    0.000
328 H_28931 5.797 40.846 -2.391 H 3 CKW::FUZI_3    0.000
329 H.a21 4.396 38.435 -0.072 H 3 CKW::FUZI_3    0.000
330 H.a22 5.197 39.977 -0.204 H 3 CKW::FUZI_3    0.000
331 H.b21 2.123 38.292 4.516 H 3 CKW::FUZI_3    0.000
332 H.b22 3.060 39.439 3.589 H 3 CKW::FUZI_3    0.000
333 H_28916 -5.151 43.932 3.306 H 3 CKW::FUZI_3    0.000
334 H_289171 -2.790 43.962 1.356 H 3 CKW::FUZI_3    0.000
335 H_289172 -4.282 44.896 1.238 H 3 CKW::FUZI_3    0.000
336 H_289173 -4.338 43.144 1.058 H 3 CKW::FUZI_3    0.000
337 H.d21 -2.532 42.402 3.721 H 3 CKW::FUZI_3    0.000
338 H.d22 -3.912 42.444 4.768 H 3 CKW::FUZI_3    0.000
339 H_289091 3.579 39.839 1.627 H 3 CKW::FUZI_3    0.000
340 H_289092 2.732 41.335 1.377 H 3 CKW::FUZI_3    0.000
341 H_289121 2.045 37.693 0.492 H 3 CKW::FUZI_3    0.000
342 H_289122 0.381 38.161 0.053 H 3 CKW::FUZI_3    0.000
343 H.c -1.486 38.263 1.703 H 3 CKW::FUZI_3    0.000
344 H_289181 -3.563 44.933 4.932 H 3 CKW::FUZI_3    0.000
345 H_289182 -3.718 45.948 3.492 H 3 CKW::FUZI_3    0.000
346 H_289183 -2.284 44.929 3.706 H 3 CKW::FUZI_3    0.000
347 H_289011 -3.070 38.576 3.492 H 3 CKW::FUZI_3    0.000
348 H_289012 -2.202 40.000 4.094 H 3 CKW::FUZI_3    0.000
349 H_289041 -2.433 41.289 0.436 H 3 CKW::FUZI_3    0.000
350 H_289042 -1.874 42.065 1.915 H 3 CKW::FUZI_3    0.000
351 H.e -5.868 38.847 3.482 H 3 CKW::FUZI_3    0.000
352 H_288921 -7.803 40.658 1.979 H 3 CKW::FUZI_3    0.000
353 H_288922 -8.174 39.502 3.283 H 3 CKW::FUZI_3    0.000
354 H_288941 -6.003 37.605 0.364 H 3 CKW::FUZI_3    0.000
355 H_288942 -6.405 39.220 -0.294 H 3 CKW::FUZI_3    0.000
356 H_288931 -7.819 37.625 1.831 H 3 CKW::FUZI_3    0.000
357 H_288932 -8.519 38.778 0.671 H 3 CKW::FUZI_3    0.000
358 C.b 1.068 60.545 1.718 C.3 4 CKW::FUZI_4    0.000
359 C_28893 8.219 57.621 6.372 C.3 4 CKW::FUZI_4    0.000
360 C_28894 6.773 57.371 5.914 C.3 4 CKW::FUZI_4    0.000
361 C_28892 8.211 59.084 6.833 C.3 4 CKW::FUZI_4    0.000
362 N 6.192 58.687 5.619 N.am 4 CKW::FUZI_4    0.000
363 O 7.252 61.793 7.064 O.2 4 CKW::FUZI_4    0.000
364 C.e 7.167 59.733 5.909 C.3 4 CKW::FUZI_4    0.000
365 O 4.192 57.999 4.914 O.2 4 CKW::FUZI_4    0.000
366 C_28904 2.944 60.476 5.097 C.3 4 CKW::FUZI_4    0.000
367 C_28901 4.848 60.956 3.757 C.3 4 CKW::FUZI_4    0.000
368 C.d 4.505 60.400 5.159 C.3 4 CKW::FUZI_4    0.000
369 C_28918 3.854 64.120 8.491 C.3 4 CKW::FUZI_4    0.000
370 C.c 3.733 60.407 2.852 C.3 4 CKW::FUZI_4    0.000
371 O 0.367 60.152 4.010 O.2 4 CKW::FUZI_4    0.000
372 O 4.464 61.697 0.999 O.2 4 CKW::FUZI_4    0.000
373 N 2.548 60.349 3.687 N.am 4 CKW::FUZI_4    0.000
374 C_28912 0.757 59.172 1.092 C.3 4 CKW::FUZI_4    0.000
375 C_28909 -0.258 61.337 1.473 C.3 4 CKW::FUZI_4    0.000
376 O 2.910 59.753 -1.428 O.co2 4 CKW::FUZI_4    0.000
377 O -1.793 62.542 -0.615 O.2 4 CKW::FUZI_4    0.000
378 C_28900 6.551 61.010 6.455 C.2 4 CKW::FUZI_4    0.000
379 C_28897 4.931 58.923 5.201 C.2 4 CKW::FUZI_4    0.000
380 N.d 5.215 61.206 6.219 N.am 4 CKW::FUZI_4    0.000
381 C.d2 4.365 62.241 6.885 C.3 4 CKW::FUZI_4    0.000
382 C_28917 5.046 62.073 9.349 C.3 4 CKW::FUZI_4    0.000
383 C_28916 4.871 63.014 8.134 C.3 4 CKW::FUZI_4    0.000
384 C_28908 1.281 60.325 3.227 C.2 4 CKW::FUZI_4    0.000
385 C_28905 3.529 61.145 1.550 C.2 4 CKW::FUZI_4    0.000
386 N.b 2.267 61.160 1.031 N.am 4 CKW::FUZI_4    0.000
387 C.b2 2.064 61.675 -0.351 C.3 4 CKW::FUZI_4    0.000
388 OH 3.555 61.644 -2.168 O.co2 4 CKW::FUZI_4    0.000
389 C_28922 2.897 60.967 -1.404 C.2 4 CKW::FUZI_4    0.000
390 C_28929 -2.242 57.175 4.128 C.2 4 CKW::FUZI_4    0.000
391 C.a2 -2.469 60.062 1.069 C.3 4 CKW::FUZI_4    0.000
392 C_28931 -2.251 57.725 1.880 C.2 4 CKW::FUZI_4    0.000
393 C_28927 -2.463 59.384 3.459 C.2 4 CKW::FUZI_4    0.000
394 C_28926 -2.376 59.023 2.175 C.2 4 CKW::FUZI_4    0.000
395 C_28935 -2.164 56.266 5.106 C.2 4 CKW::FUZI_4    0.000
396 C_28930 -2.178 56.808 2.845 C.2 4 CKW::FUZI_4    0.000
397 C_28928 -2.390 58.476 4.438 C.2 4 CKW::FUZI_4    0.000
398 C_28932 -2.457 58.846 5.721 C.2 4 CKW::FUZI_4    0.000
399 C_28933 -2.377 57.933 6.690 C.2 4 CKW::FUZI_4    0.000
400 C_28934 -2.231 56.645 6.383 C.2 4 CKW::FUZI_4    0.000
401 C.a -1.111 60.525 0.444 C.3 4 CKW::FUZI_4    0.000
402 N -0.271 59.386 0.066 N.am 4 CKW::FUZI_4    0.000
403 O 0.365 57.732 -1.266 O.2 4 CKW::FUZI_4    0.000
404 C_28938 -1.112 59.356 -2.276 C.3 4 CKW::FUZI_4    0.000
405 C_28936 -1.509 61.367 -0.761 C.2 4 CKW::FUZI_4    0.000
406 C_28939 -0.291 58.748 -1.124 C.2 4 CKW::FUZI_4    0.000
407 N.z -1.569 60.766 -1.987 N.am 4 CKW::FUZI_4    0.000
408 C.z2 -2.150 61.516 -3.137 C.3 4 CKW::FUZI_4    0.000
409 C_28975 -2.333 58.394 -2.460 C.3 4 CKW::FUZI_4    0.000
410 C_28944 -0.170 59.298 -3.535 C.3 4 CKW::FUZI_4    0.000
411 C_28945 -0.304 57.973 -4.318 C.3 4 CKW::FUZI_4    0.000
412 NH -1.689 57.802 -4.837 N.2 4 CKW::FUZI_4    0.000
413 C_28979 -4.810 64.090 -2.754 C.2 4 CKW::FUZI_4    0.000
414 C_28980 -3.627 63.500 -2.952 C.2 4 CKW::FUZI_4    0.000
415 C_28976 -4.594 61.430 -2.683 C.2 4 CKW::FUZI_4    0.000
416 C_28977 -5.780 62.005 -2.484 C.2 4 CKW::FUZI_4    0.000
417 C_28943 -3.505 62.169 -2.916 C.2 4 CKW::FUZI_4    0.000
418 C_28984 -4.925 65.423 -2.787 C.2 4 CKW::FUZI_4    0.000
419 C_28978 -5.899 63.335 -2.517 C.2 4 CKW::FUZI_4    0.000
420 C_28981 -7.083 63.924 -2.317 C.2 4 CKW::FUZI_4    0.000
421 C_28982 -7.187 65.253 -2.352 C.2 4 CKW::FUZI_4    0.000
422 C_28983 -6.110 66.002 -2.587 C.2 4 CKW::FUZI_4    0.000
423 C_28974 -2.796 58.211 -3.925 C.3 4 CKW::FUZI_4    0.000
424 H_289741 -3.563 57.432 -3.951 H 4 CKW::FUZI_4    0.000
425 H_289742 -3.250 59.127 -4.304 H 4 CKW::FUZI_4    0.000
426 H_28983 -6.196 67.085 -2.615 H 4 CKW::FUZI_4    0.000
427 H_28982 -8.152 65.727 -2.189 H 4 CKW::FUZI_4    0.000
428 H_28981 -7.971 63.325 -2.124 H 4 CKW::FUZI_4    0.000
429 H_28984 -4.054 66.047 -2.977 H 4 CKW::FUZI_4    0.000
430 H_28977 -6.650 61.379 -2.296 H 4 CKW::FUZI_4    0.000
431 H_28976 -4.525 60.348 -2.654 H 4 CKW::FUZI_4    0.000
432 H_28980 -2.746 64.111 -3.142 H 4 CKW::FUZI_4    0.000
433 H_289451 0.386 57.987 -5.166 H 4 CKW::FUZI_4    0.000
434 H_289452 -0.051 57.120 -3.684 H 4 CKW::FUZI_4    0.000
435 H_289441 0.871 59.434 -3.233 H 4 CKW::FUZI_4    0.000
436 H_289442 -0.354 60.104 -4.243 H 4 CKW::FUZI_4    0.000
437 H_289751 -3.173 58.725 -1.848 H 4 CKW::FUZI_4    0.000
438 H_289752 -2.083 57.396 -2.091 H 4 CKW::FUZI_4    0.000
439 H.z21 -2.257 60.869 -4.004 H 4 CKW::FUZI_4    0.000
440 H.z22 -1.422 62.284 -3.414 H 4 CKW::FUZI_4    0.000
441 H_28934 -2.167 55.902 7.174 H 4 CKW::FUZI_4    0.000
442 H_28933 -2.432 58.241 7.731 H 4 CKW::FUZI_4    0.000
443 H_28932 -2.575 59.895 5.987 H 4 CKW::FUZI_4    0.000
444 H_28930 -2.066 55.760 2.576 H 4 CKW::FUZI_4    0.000
445 H_28935 -2.045 55.210 4.869 H 4 CKW::FUZI_4    0.000
446 H_28927 -2.584 60.436 3.711 H 4 CKW::FUZI_4    0.000
447 H_28931 -2.200 57.405 0.842 H 4 CKW::FUZI_4    0.000
448 H.a21 -3.100 59.651 0.278 H 4 CKW::FUZI_4    0.000
449 H.a22 -3.007 60.941 1.436 H 4 CKW::FUZI_4    0.000
450 H.b21 2.332 62.735 -0.370 H 4 CKW::FUZI_4    0.000
451 H.b22 1.037 61.582 -0.688 H 4 CKW::FUZI_4    0.000
452 H_28916 5.812 63.521 7.914 H 4 CKW::FUZI_4    0.000
453 H_289171 5.410 62.632 10.214 H 4 CKW::FUZI_4    0.000
454 H_289172 5.760 61.275 9.142 H 4 CKW::FUZI_4    0.000
455 H_289173 4.093 61.610 9.619 H 4 CKW::FUZI_4    0.000
456 H.d21 3.446 61.753 7.217 H 4 CKW::FUZI_4    0.000
457 H.d22 4.102 62.976 6.119 H 4 CKW::FUZI_4    0.000
458 H_289091 -0.033 62.348 1.127 H 4 CKW::FUZI_4    0.000
459 H_289092 -0.829 61.487 2.390 H 4 CKW::FUZI_4    0.000
460 H_289121 1.660 58.730 0.664 H 4 CKW::FUZI_4    0.000
461 H_289122 0.358 58.486 1.843 H 4 CKW::FUZI_4    0.000
462 H.c 3.976 59.378 2.572 H 4 CKW::FUZI_4    0.000
463 H_289181 2.876 63.691 8.723 H 4 CKW::FUZI_4    0.000
464 H_289182 3.735 64.815 7.657 H 4 CKW::FUZI_4    0.000
465 H_289183 4.195 64.689 9.358 H 4 CKW::FUZI_4    0.000
466 H_289011 5.838 60.652 3.410 H 4 CKW::FUZI_4    0.000
467 H_289012 4.806 62.049 3.771 H 4 CKW::FUZI_4    0.000
468 H_289041 2.476 59.698 5.707 H 4 CKW::FUZI_4    0.000
469 H_289042 2.560 61.448 5.408 H 4 CKW::FUZI_4    0.000
470 H.e 7.646 60.000 4.962 H 4 CKW::FUZI_4    0.000
471 H_288921 7.880 59.138 7.874 H 4 CKW::FUZI_4    0.000
472 H_288922 9.194 59.552 6.744 H 4 CKW::FUZI_4    0.000
473 H_288941 6.750 56.732 5.027 H 4 CKW::FUZI_4    0.000
474 H_288942 6.200 56.907 6.721 H 4 CKW::FUZI_4    0.000
475 H_288931 8.898 57.506 5.524 H 4 CKW::FUZI_4    0.000
476 H_288932 8.525 56.938 7.168 H 4 CKW::FUZI_4    0.000
477 C.b -0.451 82.013 -0.327 C.3 5 CKW::FUZI_5    0.000
478 C_28893 -3.606 90.544 2.635 C.3 5 CKW::FUZI_5    0.000
479 C_28894 -3.161 89.201 3.237 C.3 5 CKW::FUZI_5    0.000
480 C_28892 -4.153 90.167 1.254 C.3 5 CKW::FUZI_5    0.000
481 N -2.971 88.276 2.112 N.am 5 CKW::FUZI_5    0.000
482 O -4.581 88.517 -1.085 O.2 5 CKW::FUZI_5    0.000
483 C.e -3.292 88.955 0.861 C.3 5 CKW::FUZI_5    0.000
484 O -2.226 86.528 3.270 O.2 5 CKW::FUZI_5    0.000
485 C_28904 -2.811 84.635 1.244 C.3 5 CKW::FUZI_5    0.000
486 C_28901 -1.278 86.186 0.239 C.3 5 CKW::FUZI_5    0.000
487 C.d -2.674 86.155 0.911 C.3 5 CKW::FUZI_5    0.000
488 C_28918 -6.401 84.727 -2.026 C.3 5 CKW::FUZI_5    0.000
489 C.c -1.150 84.824 -0.456 C.3 5 CKW::FUZI_5    0.000
490 O -2.483 81.838 0.980 O.2 5 CKW::FUZI_5    0.000
491 O 1.089 85.224 -1.132 O.2 5 CKW::FUZI_5    0.000
492 N -1.877 83.892 0.387 N.am 5 CKW::FUZI_5    0.000
493 C_28912 -0.941 81.304 -1.608 C.3 5 CKW::FUZI_5    0.000
494 C_28909 0.162 80.849 0.513 C.3 5 CKW::FUZI_5    0.000
495 O 3.699 81.661 -0.039 O.co2 5 CKW::FUZI_5    0.000
496 O 2.102 78.784 0.687 O.2 5 CKW::FUZI_5    0.000
497 C_28900 -3.913 88.049 -0.182 C.2 5 CKW::FUZI_5    0.000
498 C_28897 -2.593 86.984 2.203 C.2 5 CKW::FUZI_5    0.000
499 N.d -3.702 86.706 -0.049 N.am 5 CKW::FUZI_5    0.000
500 C.d2 -4.323 85.774 -1.033 C.3 5 CKW::FUZI_5    0.000
501 C_28917 -6.290 85.050 0.478 C.3 5 CKW::FUZI_5    0.000
502 C_28916 -5.862 85.622 -0.891 C.3 5 CKW::FUZI_5    0.000
503 C_28908 -1.692 82.557 0.397 C.2 5 CKW::FUZI_5    0.000
504 C_28905 0.263 84.399 -0.786 C.2 5 CKW::FUZI_5    0.000
505 N.b 0.561 83.072 -0.688 N.am 5 CKW::FUZI_5    0.000
506 C.b2 1.875 82.585 -1.195 C.3 5 CKW::FUZI_5    0.000
507 OH 3.147 83.651 0.486 O.co2 5 CKW::FUZI_5    0.000
508 C_28922 3.000 82.645 -0.179 C.2 5 CKW::FUZI_5    0.000
509 C_28929 0.071 75.699 2.938 C.2 5 CKW::FUZI_5    0.000
510 C.a2 -1.041 78.618 0.102 C.3 5 CKW::FUZI_5    0.000
511 C_28931 -0.525 76.290 0.782 C.2 5 CKW::FUZI_5    0.000
512 C_28927 -0.410 77.907 2.414 C.2 5 CKW::FUZI_5    0.000
513 C_28926 -0.645 77.573 1.140 C.2 5 CKW::FUZI_5    0.000
514 C_28935 0.432 74.777 3.836 C.2 5 CKW::FUZI_5    0.000
515 C_28930 -0.177 75.360 1.671 C.2 5 CKW::FUZI_5    0.000
516 C_28928 -0.045 76.986 3.313 C.2 5 CKW::FUZI_5    0.000
517 C_28932 0.207 77.329 4.581 C.2 5 CKW::FUZI_5    0.000
518 C_28933 0.573 76.404 5.469 C.2 5 CKW::FUZI_5    0.000
519 C_28934 0.685 75.129 5.097 C.2 5 CKW::FUZI_5    0.000
520 C.a 0.117 79.562 -0.366 C.3 5 CKW::FUZI_5    0.000
521 N -0.205 80.042 -1.708 N.am 5 CKW::FUZI_5    0.000
522 O -0.288 79.882 -3.917 O.2 5 CKW::FUZI_5    0.000
523 C_28938 1.237 78.351 -2.825 C.3 5 CKW::FUZI_5    0.000
524 C_28936 1.443 78.810 -0.335 C.2 5 CKW::FUZI_5    0.000
525 C_28939 0.181 79.473 -2.871 C.2 5 CKW::FUZI_5    0.000
526 N.z 1.865 78.176 -1.466 N.am 5 CKW::FUZI_5    0.000
527 C.z2 3.060 77.280 -1.417 C.3 5 CKW::FUZI_5    0.000
528 C_28975 2.330 78.724 -3.898 C.3 5 CKW::FUZI_5    0.000
529 C_28944 0.499 77.035 -3.227 C.3 5 CKW::FUZI_5    0.000
530 C_28945 0.108 76.967 -4.724 C.3 5 CKW::FUZI_5    0.000
531 NH 1.227 77.333 -5.640 N.2 5 CKW::FUZI_5    0.000
532 C_28979 3.660 75.302 1.689 C.2 5 CKW::FUZI_5    0.000
533 C_28980 3.651 76.292 0.790 C.2 5 CKW::FUZI_5    0.000
534 C_28976 2.508 74.961 -0.694 C.2 5 CKW::FUZI_5    0.000
535 C_28977 2.522 73.960 0.187 C.2 5 CKW::FUZI_5    0.000
536 C_28943 3.064 76.141 -0.403 C.2 5 CKW::FUZI_5    0.000
537 C_28984 4.228 75.471 2.888 C.2 5 CKW::FUZI_5    0.000
538 C_28978 3.091 74.122 1.384 C.2 5 CKW::FUZI_5    0.000
539 C_28981 3.102 73.129 2.279 C.2 5 CKW::FUZI_5    0.000
540 C_28982 3.670 73.308 3.473 C.2 5 CKW::FUZI_5    0.000
541 C_28983 4.231 74.477 3.777 C.2 5 CKW::FUZI_5    0.000
542 C_28974 2.523 77.640 -4.982 C.3 5 CKW::FUZI_5    0.000
543 H_289741 3.225 78.004 -5.736 H 5 CKW::FUZI_5    0.000
544 H_289742 2.933 76.726 -4.545 H 5 CKW::FUZI_5    0.000
545 H_28983 4.693 74.621 4.751 H 5 CKW::FUZI_5    0.000
546 H_28982 3.673 72.498 4.199 H 5 CKW::FUZI_5    0.000
547 H_28981 2.645 72.170 2.045 H 5 CKW::FUZI_5    0.000
548 H_28984 4.691 76.420 3.150 H 5 CKW::FUZI_5    0.000
549 H_28977 2.060 73.011 -0.079 H 5 CKW::FUZI_5    0.000
550 H_28976 2.042 74.796 -1.659 H 5 CKW::FUZI_5    0.000
551 H_28980 4.125 77.240 1.036 H 5 CKW::FUZI_5    0.000
552 H_289451 -0.216 75.949 -4.958 H 5 CKW::FUZI_5    0.000
553 H_289452 -0.734 77.635 -4.918 H 5 CKW::FUZI_5    0.000
554 H_289441 -0.394 76.900 -2.612 H 5 CKW::FUZI_5    0.000
555 H_289442 1.136 76.175 -3.031 H 5 CKW::FUZI_5    0.000
556 H_289751 3.294 78.928 -3.426 H 5 CKW::FUZI_5    0.000
557 H_289752 2.087 79.658 -4.410 H 5 CKW::FUZI_5    0.000
558 H.z21 3.928 77.917 -1.227 H 5 CKW::FUZI_5    0.000
559 H.z22 3.224 76.828 -2.396 H 5 CKW::FUZI_5    0.000
560 H_28934 0.982 74.375 5.822 H 5 CKW::FUZI_5    0.000
561 H_28933 0.779 76.689 6.497 H 5 CKW::FUZI_5    0.000
562 H_28932 0.119 78.366 4.899 H 5 CKW::FUZI_5    0.000
563 H_28930 -0.092 74.324 1.351 H 5 CKW::FUZI_5    0.000
564 H_28935 0.525 73.732 3.546 H 5 CKW::FUZI_5    0.000
565 H_28927 -0.509 78.942 2.726 H 5 CKW::FUZI_5    0.000
566 H_28931 -0.712 75.989 -0.246 H 5 CKW::FUZI_5    0.000
567 H.a21 -1.440 78.094 -0.771 H 5 CKW::FUZI_5    0.000
568 H.a22 -1.880 79.207 0.479 H 5 CKW::FUZI_5    0.000
569 H.b21 2.187 83.191 -2.050 H 5 CKW::FUZI_5    0.000
570 H.b22 1.808 81.554 -1.543 H 5 CKW::FUZI_5    0.000
571 H_28916 -6.326 86.604 -0.999 H 5 CKW::FUZI_5    0.000
572 H_289171 -7.379 85.044 0.561 H 5 CKW::FUZI_5    0.000
573 H_289172 -5.896 85.656 1.297 H 5 CKW::FUZI_5    0.000
574 H_289173 -5.939 84.022 0.600 H 5 CKW::FUZI_5    0.000
575 H.d21 -3.876 84.782 -0.995 H 5 CKW::FUZI_5    0.000
576 H.d22 -4.108 86.163 -2.032 H 5 CKW::FUZI_5    0.000
577 H_289091 -0.372 80.700 1.451 H 5 CKW::FUZI_5    0.000
578 H_289092 1.175 81.089 0.826 H 5 CKW::FUZI_5    0.000
579 H_289121 -2.007 81.070 -1.545 H 5 CKW::FUZI_5    0.000
580 H_289122 -0.767 81.931 -2.487 H 5 CKW::FUZI_5    0.000
581 H.c -1.672 84.865 -1.415 H 5 CKW::FUZI_5    0.000
582 H_289181 -5.972 83.723 -1.967 H 5 CKW::FUZI_5    0.000
583 H_289182 -6.150 85.151 -3.001 H 5 CKW::FUZI_5    0.000
584 H_289183 -7.489 84.641 -1.965 H 5 CKW::FUZI_5    0.000
585 H_289011 -0.495 86.273 0.999 H 5 CKW::FUZI_5    0.000
586 H_289012 -1.164 87.015 -0.464 H 5 CKW::FUZI_5    0.000
587 H_289041 -2.524 84.420 2.275 H 5 CKW::FUZI_5    0.000
588 H_289042 -3.827 84.271 1.105 H 5 CKW::FUZI_5    0.000
589 H.e -2.348 89.311 0.438 H 5 CKW::FUZI_5    0.000
590 H_288921 -5.202 89.871 1.343 H 5 CKW::FUZI_5    0.000
591 H_288922 -4.070 90.986 0.536 H 5 CKW::FUZI_5    0.000
592 H_288941 -2.232 89.316 3.802 H 5 CKW::FUZI_5    0.000
593 H_288942 -3.945 88.805 3.888 H 5 CKW::FUZI_5    0.000
594 H_288931 -2.740 91.200 2.521 H 5 CKW::FUZI_5    0.000
595 H_288932 -4.354 91.047 3.254 H 5 CKW::FUZI_5    0.000
596 C.b 0.193 99.750 1.657 C.3 6 CKW::FUZI_6    0.000
597 C_28893 -6.586 104.487 0.061 C.3 6 CKW::FUZI_6    0.000
598 C_28894 -5.682 103.532 0.859 C.3 6 CKW::FUZI_6    0.000
599 C_28892 -5.608 105.271 -0.822 C.3 6 CKW::FUZI_6    0.000
600 N -4.314 104.064 0.773 N.am 6 CKW::FUZI_6    0.000
601 O -3.097 106.491 -1.589 O.2 6 CKW::FUZI_6    0.000
602 C.e -4.350 105.329 0.056 C.3 6 CKW::FUZI_6    0.000
603 O -3.299 102.389 1.817 O.2 6 CKW::FUZI_6    0.000
604 C_28904 -1.298 102.740 -0.256 C.3 6 CKW::FUZI_6    0.000
605 C_28901 -0.863 103.939 1.821 C.3 6 CKW::FUZI_6    0.000
606 C.d -1.844 103.903 0.614 C.3 6 CKW::FUZI_6    0.000
607 C_28918 1.387 107.219 -0.277 C.3 6 CKW::FUZI_6    0.000
608 C.c -0.146 102.569 1.837 C.3 6 CKW::FUZI_6    0.000
609 O -0.755 99.986 -0.574 O.2 6 CKW::FUZI_6    0.000
610 O -0.570 102.253 4.172 O.2 6 CKW::FUZI_6    0.000
611 N -0.566 101.843 0.640 N.am 6 CKW::FUZI_6    0.000
612 C_28912 1.725 99.820 1.526 C.3 6 CKW::FUZI_6    0.000
613 C_28909 0.015 98.209 1.480 C.3 6 CKW::FUZI_6    0.000
614 O 1.396 99.361 4.966 O.co2 6 CKW::FUZI_6    0.000
615 O -0.348 96.576 -0.898 O.2 6 CKW::FUZI_6    0.000
616 C_28900 -3.073 105.708 -0.658 C.2 6 CKW::FUZI_6    0.000
617 C_28897 -3.201 103.395 1.137 C.2 6 CKW::FUZI_6    0.000
618 N.d -1.910 105.174 -0.188 N.am 6 CKW::FUZI_6    0.000
619 C.d2 -0.601 105.706 -0.662 C.3 6 CKW::FUZI_6    0.000
620 C_28917 -0.922 108.234 -0.237 C.3 6 CKW::FUZI_6    0.000
621 C_28916 -0.093 106.972 0.086 C.3 6 CKW::FUZI_6    0.000
622 C_28908 -0.401 100.514 0.462 C.2 6 CKW::FUZI_6    0.000
623 C_28905 -0.335 101.736 3.096 C.2 6 CKW::FUZI_6    0.000
624 N.b -0.258 100.380 2.947 N.am 6 CKW::FUZI_6    0.000
625 C.b2 -0.768 99.488 4.016 C.3 6 CKW::FUZI_6    0.000
626 OH 0.020 97.800 5.431 O.co2 6 CKW::FUZI_6    0.000
627 C_28922 0.305 98.835 4.865 C.2 6 CKW::FUZI_6    0.000
628 C_28929 4.289 97.029 4.498 C.2 6 CKW::FUZI_6    0.000
629 C.a2 1.887 96.473 1.077 C.3 6 CKW::FUZI_6    0.000
630 C_28931 3.965 97.228 2.216 C.2 6 CKW::FUZI_6    0.000
631 C_28927 2.314 96.301 3.523 C.2 6 CKW::FUZI_6    0.000
632 C_28926 2.745 96.689 2.317 C.2 6 CKW::FUZI_6    0.000
633 C_28935 5.045 97.200 5.588 C.2 6 CKW::FUZI_6    0.000
634 C_28930 4.727 97.406 3.295 C.2 6 CKW::FUZI_6    0.000
635 C_28928 3.073 96.464 4.612 C.2 6 CKW::FUZI_6    0.000
636 C_28932 2.638 96.071 5.815 C.2 6 CKW::FUZI_6    0.000
637 C_28933 3.399 96.246 6.896 C.2 6 CKW::FUZI_6    0.000
638 C_28934 4.600 96.811 6.783 C.2 6 CKW::FUZI_6    0.000
639 C.a 1.157 97.740 0.521 C.3 6 CKW::FUZI_6    0.000
640 N 2.061 98.891 0.442 N.am 6 CKW::FUZI_6    0.000
641 O 3.667 100.095 -0.487 O.2 6 CKW::FUZI_6    0.000
642 C_28938 2.517 98.563 -1.976 C.3 6 CKW::FUZI_6    0.000
643 C_28936 0.609 97.328 -0.839 C.2 6 CKW::FUZI_6    0.000
644 C_28939 2.809 99.242 -0.625 C.2 6 CKW::FUZI_6    0.000
645 N.z 1.220 97.792 -1.970 N.am 6 CKW::FUZI_6    0.000
646 C.z2 0.705 97.362 -3.303 C.3 6 CKW::FUZI_6    0.000
647 C_28975 3.697 97.572 -2.233 C.3 6 CKW::FUZI_6    0.000
648 C_28944 2.525 99.698 -3.070 C.3 6 CKW::FUZI_6    0.000
649 C_28945 3.345 99.344 -4.333 C.3 6 CKW::FUZI_6    0.000
650 NH 4.762 99.056 -3.981 N.2 6 CKW::FUZI_6    0.000
651 C_28979 -1.051 99.544 -5.757 C.2 6 CKW::FUZI_6    0.000
652 C_28980 -0.146 98.751 -5.174 C.2 6 CKW::FUZI_6    0.000
653 C_28976 -1.495 98.542 -3.324 C.2 6 CKW::FUZI_6    0.000
654 C_28977 -2.407 99.331 -3.893 C.2 6 CKW::FUZI_6    0.000
655 C_28943 -0.350 98.249 -3.950 C.2 6 CKW::FUZI_6    0.000
656 C_28984 -0.834 100.049 -6.977 C.2 6 CKW::FUZI_6    0.000
657 C_28978 -2.193 99.839 -5.109 C.2 6 CKW::FUZI_6    0.000
658 C_28981 -3.099 100.634 -5.690 C.2 6 CKW::FUZI_6    0.000
659 C_28982 -2.873 101.133 -6.906 C.2 6 CKW::FUZI_6    0.000
660 C_28983 -1.742 100.841 -7.548 C.2 6 CKW::FUZI_6    0.000
661 C_28974 4.983 98.271 -2.733 C.3 6 CKW::FUZI_6    0.000
662 H_289741 5.372 98.938 -1.961 H 6 CKW::FUZI_6    0.000
663 H_289742 5.743 97.510 -2.933 H 6 CKW::FUZI_6    0.000
664 H_28983 -1.560 101.249 -8.540 H 6 CKW::FUZI_6    0.000
665 H_28982 -3.613 101.779 -7.373 H 6 CKW::FUZI_6    0.000
666 H_28981 -4.026 100.880 -5.177 H 6 CKW::FUZI_6    0.000
667 H_28984 0.084 99.820 -7.513 H 6 CKW::FUZI_6    0.000
668 H_28977 -3.326 99.555 -3.356 H 6 CKW::FUZI_6    0.000
669 H_28976 -1.700 98.143 -2.336 H 6 CKW::FUZI_6    0.000
670 H_28980 0.775 98.515 -5.701 H 6 CKW::FUZI_6    0.000
671 H_289451 2.927 98.480 -4.849 H 6 CKW::FUZI_6    0.000
672 H_289452 3.323 100.193 -5.020 H 6 CKW::FUZI_6    0.000
673 H_289441 2.956 100.624 -2.689 H 6 CKW::FUZI_6    0.000
674 H_289442 1.510 99.983 -3.344 H 6 CKW::FUZI_6    0.000
675 H_289751 3.417 96.823 -2.976 H 6 CKW::FUZI_6    0.000
676 H_289752 3.925 97.017 -1.321 H 6 CKW::FUZI_6    0.000
677 H.z21 0.282 96.358 -3.208 H 6 CKW::FUZI_6    0.000
678 H.z22 1.541 97.242 -3.990 H 6 CKW::FUZI_6    0.000
679 H_28934 5.219 96.953 7.666 H 6 CKW::FUZI_6    0.000
680 H_28933 3.038 95.927 7.871 H 6 CKW::FUZI_6    0.000
681 H_28932 1.660 95.607 5.923 H 6 CKW::FUZI_6    0.000
682 H_28930 5.711 97.856 3.182 H 6 CKW::FUZI_6    0.000
683 H_28935 6.030 97.657 5.509 H 6 CKW::FUZI_6    0.000
684 H_28927 1.332 95.843 3.615 H 6 CKW::FUZI_6    0.000
685 H_28931 4.349 97.531 1.245 H 6 CKW::FUZI_6    0.000
686 H.a21 2.531 96.066 0.294 H 6 CKW::FUZI_6    0.000
687 H.a22 1.145 95.694 1.274 H 6 CKW::FUZI_6    0.000
688 H.b21 -1.395 98.703 3.587 H 6 CKW::FUZI_6    0.000
689 H.b22 -1.402 100.051 4.705 H 6 CKW::FUZI_6    0.000
690 H_28916 -0.148 106.810 1.163 H 6 CKW::FUZI_6    0.000
691 H_289171 -0.476 109.115 0.232 H 6 CKW::FUZI_6    0.000
692 H_289172 -1.939 108.141 0.148 H 6 CKW::FUZI_6    0.000
693 H_289173 -0.967 108.408 -1.315 H 6 CKW::FUZI_6    0.000
694 H.d21 -0.667 105.923 -1.732 H 6 CKW::FUZI_6    0.000
695 H.d22 0.164 104.936 -0.549 H 6 CKW::FUZI_6    0.000
696 H_289091 -0.987 97.964 1.119 H 6 CKW::FUZI_6    0.000
697 H_289092 0.140 97.689 2.427 H 6 CKW::FUZI_6    0.000
698 H_289121 2.056 100.836 1.294 H 6 CKW::FUZI_6    0.000
699 H_289122 2.209 99.485 2.447 H 6 CKW::FUZI_6    0.000
700 H.c 0.930 102.742 1.755 H 6 CKW::FUZI_6    0.000
701 H_289181 1.776 108.086 0.261 H 6 CKW::FUZI_6    0.000
702 H_289182 1.500 107.399 -1.348 H 6 CKW::FUZI_6    0.000
703 H_289183 1.998 106.354 -0.006 H 6 CKW::FUZI_6    0.000
704 H_289011 -1.392 104.160 2.751 H 6 CKW::FUZI_6    0.000
705 H_289012 -0.094 104.700 1.711 H 6 CKW::FUZI_6    0.000
706 H_289041 -2.117 102.207 -0.749 H 6 CKW::FUZI_6    0.000
707 H_289042 -0.605 103.087 -1.024 H 6 CKW::FUZI_6    0.000
708 H.e -4.496 106.106 0.813 H 6 CKW::FUZI_6    0.000
709 H_288921 -5.403 104.714 -1.740 H 6 CKW::FUZI_6    0.000
710 H_288922 -5.985 106.264 -1.078 H 6 CKW::FUZI_6    0.000
711 H_288941 -6.004 103.471 1.902 H 6 CKW::FUZI_6    0.000
712 H_288942 -5.703 102.536 0.406 H 6 CKW::FUZI_6    0.000
713 H_288931 -7.094 105.171 0.747 H 6 CKW::FUZI_6    0.000
714 H_288932 -7.336 103.952 -0.527 H 6 CKW::FUZI_6    0.000
715 C.b 20.861 2.354 1.249 C.3 7 CKW::FUZI_7    0.000
716 C_28893 26.367 -2.297 7.566 C.3 7 CKW::FUZI_7    0.000
717 C_28894 26.604 -1.449 6.305 C.3 7 CKW::FUZI_7    0.000
718 C_28892 24.953 -2.858 7.372 C.3 7 CKW::FUZI_7    0.000
719 N 25.280 -1.128 5.756 N.am 7 CKW::FUZI_7    0.000
720 O 22.299 -3.064 6.240 O.2 7 CKW::FUZI_7    0.000
721 C.e 24.246 -1.745 6.580 C.3 7 CKW::FUZI_7    0.000
722 O 25.948 0.166 4.072 O.2 7 CKW::FUZI_7    0.000
723 C_28904 23.533 -0.070 2.618 C.3 7 CKW::FUZI_7    0.000
724 C_28901 22.897 0.875 4.723 C.3 7 CKW::FUZI_7    0.000
725 C.d 23.584 -0.387 4.145 C.3 7 CKW::FUZI_7    0.000
726 C_28918 20.503 -3.854 2.395 C.3 7 CKW::FUZI_7    0.000
727 C.c 21.850 1.265 3.669 C.3 7 CKW::FUZI_7    0.000
728 O 22.498 0.912 0.164 O.2 7 CKW::FUZI_7    0.000
729 O 21.465 3.393 4.680 O.2 7 CKW::FUZI_7    0.000
730 N 22.415 0.853 2.390 N.am 7 CKW::FUZI_7    0.000
731 C_28912 20.751 3.060 -0.130 C.3 7 CKW::FUZI_7    0.000
732 C_28909 19.514 1.580 1.302 C.3 7 CKW::FUZI_7    0.000
733 O 18.514 4.537 3.041 O.co2 7 CKW::FUZI_7    0.000
734 O 17.627 -0.342 0.223 O.2 7 CKW::FUZI_7    0.000
735 C_28900 23.033 -2.202 5.794 C.2 7 CKW::FUZI_7    0.000
736 C_28897 25.038 -0.408 4.640 C.2 7 CKW::FUZI_7    0.000
737 N.d 22.822 -1.620 4.577 N.am 7 CKW::FUZI_7    0.000
738 C.d2 21.660 -2.064 3.754 C.3 7 CKW::FUZI_7    0.000
739 C_28917 23.004 -3.587 2.161 C.3 7 CKW::FUZI_7    0.000
740 C_28916 21.807 -3.478 3.129 C.3 7 CKW::FUZI_7    0.000
741 C_28908 21.986 1.308 1.194 C.2 7 CKW::FUZI_7    0.000
742 C_28905 21.423 2.721 3.667 C.2 7 CKW::FUZI_7    0.000
743 N.b 21.017 3.229 2.465 N.am 7 CKW::FUZI_7    0.000
744 C.b2 20.750 4.680 2.310 C.3 7 CKW::FUZI_7    0.000
745 OH 18.913 5.810 1.378 O.co2 7 CKW::FUZI_7    0.000
746 C_28922 19.278 5.034 2.238 C.2 7 CKW::FUZI_7    0.000
747 C_28929 15.361 2.683 -3.631 C.2 7 CKW::FUZI_7    0.000
748 C.a2 17.666 2.605 -0.107 C.3 7 CKW::FUZI_7    0.000
749 C_28931 17.300 3.226 -2.489 C.2 7 CKW::FUZI_7    0.000
750 C_28927 15.638 2.047 -1.419 C.2 7 CKW::FUZI_7    0.000
751 C_28926 16.848 2.617 -1.389 C.2 7 CKW::FUZI_7    0.000
752 C_28935 14.613 2.713 -4.739 C.2 7 CKW::FUZI_7    0.000
753 C_28930 16.569 3.253 -3.603 C.2 7 CKW::FUZI_7    0.000
754 C_28928 14.888 2.080 -2.525 C.2 7 CKW::FUZI_7    0.000
755 C_28932 13.670 1.528 -2.541 C.2 7 CKW::FUZI_7    0.000
756 C_28933 12.929 1.566 -3.649 C.2 7 CKW::FUZI_7    0.000
757 C_28934 13.401 2.155 -4.748 C.2 7 CKW::FUZI_7    0.000
758 C.a 18.885 1.628 -0.121 C.3 7 CKW::FUZI_7    0.000
759 N 19.957 2.148 -0.966 N.am 7 CKW::FUZI_7    0.000
760 O 21.278 2.218 -2.728 O.2 7 CKW::FUZI_7    0.000
761 C_28938 19.842 0.269 -2.616 C.3 7 CKW::FUZI_7    0.000
762 C_28936 18.377 0.255 -0.528 C.2 7 CKW::FUZI_7    0.000
763 C_28939 20.407 1.620 -2.126 C.2 7 CKW::FUZI_7    0.000
764 N.z 18.747 -0.275 -1.730 N.am 7 CKW::FUZI_7    0.000
765 C.z2 18.175 -1.592 -2.140 C.3 7 CKW::FUZI_7    0.000
766 C_28975 21.042 -0.745 -2.610 C.3 7 CKW::FUZI_7    0.000
767 C_28944 19.332 0.474 -4.086 C.3 7 CKW::FUZI_7    0.000
768 C_28945 20.446 0.647 -5.145 C.3 7 CKW::FUZI_7    0.000
769 NH 21.416 -0.470 -5.049 N.2 7 CKW::FUZI_7    0.000
770 C_28979 14.574 -2.329 -1.534 C.2 7 CKW::FUZI_7    0.000
771 C_28980 15.898 -2.230 -1.380 C.2 7 CKW::FUZI_7    0.000
772 C_28976 16.081 -1.231 -3.443 C.2 7 CKW::FUZI_7    0.000
773 C_28977 14.764 -1.335 -3.614 C.2 7 CKW::FUZI_7    0.000
774 C_28943 16.666 -1.676 -2.325 C.2 7 CKW::FUZI_7    0.000
775 C_28984 13.812 -2.873 -0.578 C.2 7 CKW::FUZI_7    0.000
776 C_28978 14.000 -1.878 -2.664 C.2 7 CKW::FUZI_7    0.000
777 C_28981 12.676 -1.977 -2.821 C.2 7 CKW::FUZI_7    0.000
778 C_28982 11.925 -2.520 -1.862 C.2 7 CKW::FUZI_7    0.000
779 C_28983 12.492 -2.967 -0.742 C.2 7 CKW::FUZI_7    0.000
780 C_28974 22.087 -0.520 -3.727 C.3 7 CKW::FUZI_7    0.000
781 H_289741 22.650 0.401 -3.564 H 7 CKW::FUZI_7    0.000
782 H_289742 22.796 -1.351 -3.725 H 7 CKW::FUZI_7    0.000
783 H_28983 11.878 -3.410 0.038 H 7 CKW::FUZI_7    0.000
784 H_28982 10.848 -2.598 -1.994 H 7 CKW::FUZI_7    0.000
785 H_28981 12.200 -1.616 -3.730 H 7 CKW::FUZI_7    0.000
786 H_28984 14.262 -3.243 0.341 H 7 CKW::FUZI_7    0.000
787 H_28977 14.319 -0.967 -4.537 H 7 CKW::FUZI_7    0.000
788 H_28976 16.671 -0.785 -4.235 H 7 CKW::FUZI_7    0.000
789 H_28980 16.362 -2.607 -0.470 H 7 CKW::FUZI_7    0.000
790 H_289451 19.994 0.633 -6.141 H 7 CKW::FUZI_7    0.000
791 H_289452 20.965 1.600 -5.028 H 7 CKW::FUZI_7    0.000
792 H_289441 18.654 1.327 -4.129 H 7 CKW::FUZI_7    0.000
793 H_289442 18.762 -0.388 -4.420 H 7 CKW::FUZI_7    0.000
794 H_289751 20.692 -1.770 -2.730 H 7 CKW::FUZI_7    0.000
795 H_289752 21.540 -0.719 -1.640 H 7 CKW::FUZI_7    0.000
796 H.z21 18.472 -2.316 -1.375 H 7 CKW::FUZI_7    0.000
797 H.z22 18.632 -1.946 -3.065 H 7 CKW::FUZI_7    0.000
798 H_28934 12.797 2.184 -5.651 H 7 CKW::FUZI_7    0.000
799 H_28933 11.941 1.114 -3.657 H 7 CKW::FUZI_7    0.000
800 H_28932 13.274 1.040 -1.653 H 7 CKW::FUZI_7    0.000
801 H_28930 16.963 3.752 -4.486 H 7 CKW::FUZI_7    0.000
802 H_28935 14.983 3.196 -5.641 H 7 CKW::FUZI_7    0.000
803 H_28927 15.255 1.558 -0.526 H 7 CKW::FUZI_7    0.000
804 H_28931 18.273 3.710 -2.484 H 7 CKW::FUZI_7    0.000
805 H.a21 18.002 3.621 0.101 H 7 CKW::FUZI_7    0.000
806 H.a22 17.010 2.341 0.727 H 7 CKW::FUZI_7    0.000
807 H.b21 21.250 5.065 1.418 H 7 CKW::FUZI_7    0.000
808 H.b22 21.157 5.234 3.161 H 7 CKW::FUZI_7    0.000
809 H_28916 21.958 -4.205 3.930 H 7 CKW::FUZI_7    0.000
810 H_289171 23.935 -3.299 2.654 H 7 CKW::FUZI_7    0.000
811 H_289172 22.857 -2.952 1.285 H 7 CKW::FUZI_7    0.000
812 H_289173 23.115 -4.617 1.813 H 7 CKW::FUZI_7    0.000
813 H.d21 21.432 -1.367 2.952 H 7 CKW::FUZI_7    0.000
814 H.d22 20.782 -2.068 4.407 H 7 CKW::FUZI_7    0.000
815 H_289091 18.841 2.017 2.043 H 7 CKW::FUZI_7    0.000
816 H_289092 19.684 0.547 1.618 H 7 CKW::FUZI_7    0.000
817 H_289121 20.205 4.001 -0.080 H 7 CKW::FUZI_7    0.000
818 H_289122 21.741 3.255 -0.550 H 7 CKW::FUZI_7    0.000
819 H.c 20.940 0.681 3.833 H 7 CKW::FUZI_7    0.000
820 H_289181 20.573 -4.862 1.979 H 7 CKW::FUZI_7    0.000
821 H_289182 20.302 -3.158 1.577 H 7 CKW::FUZI_7    0.000
822 H_289183 19.655 -3.830 3.083 H 7 CKW::FUZI_7    0.000
823 H_289011 23.625 1.685 4.822 H 7 CKW::FUZI_7    0.000
824 H_289012 22.444 0.701 5.702 H 7 CKW::FUZI_7    0.000
825 H_289041 24.434 0.448 2.284 H 7 CKW::FUZI_7    0.000
826 H_289042 23.419 -0.969 2.015 H 7 CKW::FUZI_7    0.000
827 H.e 23.892 -0.980 7.277 H 7 CKW::FUZI_7    0.000
828 H_288921 25.000 -3.774 6.777 H 7 CKW::FUZI_7    0.000
829 H_288922 24.457 -3.071 8.322 H 7 CKW::FUZI_7    0.000
830 H_288941 27.152 -0.535 6.548 H 7 CKW::FUZI_7    0.000
831 H_288942 27.160 -2.030 5.564 H 7 CKW::FUZI_7    0.000
832 H_288931 26.390 -1.655 8.450 H 7 CKW::FUZI_7    0.000
833 H_288932 27.113 -3.086 7.680 H 7 CKW::FUZI_7    0.000
834 C.b 20.074 19.105 0.471 C.3 8 CKW::FUZI_8    0.000
835 C_28893 15.060 12.668 2.241 C.3 8 CKW::FUZI_8    0.000
836 C_28894 16.198 13.683 2.443 C.3 8 CKW::FUZI_8    0.000
837 C_28892 14.064 13.406 1.338 C.3 8 CKW::FUZI_8    0.000
838 N 15.657 15.007 2.100 N.am 8 CKW::FUZI_8    0.000
839 O 12.778 15.649 0.082 O.2 8 CKW::FUZI_8    0.000
840 C.e 14.247 14.866 1.775 C.3 8 CKW::FUZI_8    0.000
841 O 17.556 16.138 2.298 O.2 8 CKW::FUZI_8    0.000
842 C_28904 16.588 17.543 -0.063 C.3 8 CKW::FUZI_8    0.000
843 C_28901 16.066 18.587 2.066 C.3 8 CKW::FUZI_8    0.000
844 C.d 15.742 17.326 1.219 C.3 8 CKW::FUZI_8    0.000
845 C_28918 11.135 18.043 0.808 C.3 8 CKW::FUZI_8    0.000
846 C.c 17.369 19.180 1.480 C.3 8 CKW::FUZI_8    0.000
847 O 19.091 17.816 -1.338 O.2 8 CKW::FUZI_8    0.000
848 O 18.310 19.544 3.637 O.2 8 CKW::FUZI_8    0.000
849 N 17.725 18.382 0.317 N.am 8 CKW::FUZI_8    0.000
850 C_28912 21.402 18.353 0.190 C.3 8 CKW::FUZI_8    0.000
851 C_28909 20.313 20.485 -0.195 C.3 8 CKW::FUZI_8    0.000
852 O 20.285 21.842 3.063 O.co2 8 CKW::FUZI_8    0.000
853 O 21.856 22.859 0.217 O.2 8 CKW::FUZI_8    0.000
854 C_28900 13.706 15.910 0.824 C.2 8 CKW::FUZI_8    0.000
855 C_28897 16.395 16.124 1.930 C.2 8 CKW::FUZI_8    0.000
856 N.d 14.290 17.140 0.862 N.am 8 CKW::FUZI_8    0.000
857 C.d2 13.639 18.298 0.175 C.3 8 CKW::FUZI_8    0.000
858 C_28917 12.643 19.381 2.326 C.3 8 CKW::FUZI_8    0.000
859 C_28916 12.393 18.936 0.868 C.3 8 CKW::FUZI_8    0.000
860 C_28908 18.935 18.389 -0.276 C.2 8 CKW::FUZI_8    0.000
861 C_28905 18.518 19.351 2.454 C.2 8 CKW::FUZI_8    0.000
862 N.b 19.783 19.287 1.944 N.am 8 CKW::FUZI_8    0.000
863 C.b2 20.937 19.572 2.847 C.3 8 CKW::FUZI_8    0.000
864 OH 22.347 21.390 3.312 O.co2 8 CKW::FUZI_8    0.000
865 C_28922 21.204 21.048 3.093 C.2 8 CKW::FUZI_8    0.000
866 C_28929 20.903 17.474 -4.450 C.2 8 CKW::FUZI_8    0.000
867 C.a2 22.038 20.761 -2.070 C.3 8 CKW::FUZI_8    0.000
868 C_28931 20.452 19.565 -3.566 C.2 8 CKW::FUZI_8    0.000
869 C_28927 22.443 18.524 -3.070 C.2 8 CKW::FUZI_8    0.000
870 C_28926 21.623 19.570 -2.921 C.2 8 CKW::FUZI_8    0.000
871 C_28935 20.550 16.423 -5.198 C.2 8 CKW::FUZI_8    0.000
872 C_28930 20.091 18.527 -4.321 C.2 8 CKW::FUZI_8    0.000
873 C_28928 22.092 17.474 -3.819 C.2 8 CKW::FUZI_8    0.000
874 C_28932 22.909 16.423 -3.949 C.2 8 CKW::FUZI_8    0.000
875 C_28933 22.549 15.379 -4.697 C.2 8 CKW::FUZI_8    0.000
876 C_28934 21.371 15.379 -5.320 C.2 8 CKW::FUZI_8    0.000
877 C.a 21.834 20.596 -0.528 C.3 8 CKW::FUZI_8    0.000
878 N 22.442 19.364 -0.026 N.am 8 CKW::FUZI_8    0.000
879 O 24.137 18.086 0.583 O.2 8 CKW::FUZI_8    0.000
880 C_28938 24.607 20.465 0.513 C.3 8 CKW::FUZI_8    0.000
881 C_28936 22.484 21.823 0.092 C.2 8 CKW::FUZI_8    0.000
882 C_28939 23.731 19.208 0.346 C.2 8 CKW::FUZI_8    0.000
883 N.z 23.799 21.739 0.457 N.am 8 CKW::FUZI_8    0.000
884 C.z2 24.547 22.989 0.776 C.3 8 CKW::FUZI_8    0.000
885 C_28975 25.664 20.458 -0.640 C.3 8 CKW::FUZI_8    0.000
886 C_28944 25.319 20.329 1.913 C.3 8 CKW::FUZI_8    0.000
887 C_28945 26.496 19.322 1.959 C.3 8 CKW::FUZI_8    0.000
888 NH 27.431 19.569 0.838 N.2 8 CKW::FUZI_8    0.000
889 C_28979 23.914 26.372 -0.638 C.2 8 CKW::FUZI_8    0.000
890 C_28980 24.059 25.355 0.217 C.2 8 CKW::FUZI_8    0.000
891 C_28976 24.594 23.946 -1.522 C.2 8 CKW::FUZI_8    0.000
892 C_28977 24.453 24.952 -2.386 C.2 8 CKW::FUZI_8    0.000
893 C_28943 24.397 24.135 -0.213 C.2 8 CKW::FUZI_8    0.000
894 C_28984 23.573 27.590 -0.202 C.2 8 CKW::FUZI_8    0.000
895 C_28978 24.113 26.169 -1.954 C.2 8 CKW::FUZI_8    0.000
896 C_28981 23.968 27.185 -2.811 C.2 8 CKW::FUZI_8    0.000
897 C_28982 23.628 28.396 -2.367 C.2 8 CKW::FUZI_8    0.000
898 C_28983 23.431 28.598 -1.064 C.2 8 CKW::FUZI_8    0.000
899 C_28974 26.769 19.393 -0.476 C.3 8 CKW::FUZI_8    0.000
900 H_289741 26.354 18.385 -0.551 H 8 CKW::FUZI_8    0.000
901 H_289742 27.513 19.518 -1.267 H 8 CKW::FUZI_8    0.000
902 H_28983 23.153 29.585 -0.703 H 8 CKW::FUZI_8    0.000
903 H_28982 23.512 29.219 -3.068 H 8 CKW::FUZI_8    0.000
904 H_28981 24.126 27.035 -3.877 H 8 CKW::FUZI_8    0.000
905 H_28984 23.409 27.770 0.858 H 8 CKW::FUZI_8    0.000
906 H_28977 24.617 24.769 -3.446 H 8 CKW::FUZI_8    0.000
907 H_28976 24.867 22.964 -1.899 H 8 CKW::FUZI_8    0.000
908 H_28980 23.896 25.518 1.281 H 8 CKW::FUZI_8    0.000
909 H_289451 27.035 19.447 2.901 H 8 CKW::FUZI_8    0.000
910 H_289452 26.137 18.292 1.914 H 8 CKW::FUZI_8    0.000
911 H_289441 24.585 20.044 2.670 H 8 CKW::FUZI_8    0.000
912 H_289442 25.733 21.278 2.251 H 8 CKW::FUZI_8    0.000
913 H_289751 26.168 21.422 -0.706 H 8 CKW::FUZI_8    0.000
914 H_289752 25.168 20.305 -1.600 H 8 CKW::FUZI_8    0.000
915 H.z21 25.616 22.789 0.850 H 8 CKW::FUZI_8    0.000
916 H.z22 24.215 23.317 1.765 H 8 CKW::FUZI_8    0.000
917 H_28934 21.079 14.528 -5.930 H 8 CKW::FUZI_8    0.000
918 H_28933 23.217 14.527 -4.798 H 8 CKW::FUZI_8    0.000
919 H_28932 23.873 16.409 -3.445 H 8 CKW::FUZI_8    0.000
920 H_28930 19.129 18.547 -4.828 H 8 CKW::FUZI_8    0.000
921 H_28935 19.591 16.410 -5.713 H 8 CKW::FUZI_8    0.000
922 H_28927 23.407 18.525 -2.565 H 8 CKW::FUZI_8    0.000
923 H_28931 19.775 20.412 -3.476 H 8 CKW::FUZI_8    0.000
924 H.a21 23.089 20.972 -2.272 H 8 CKW::FUZI_8    0.000
925 H.a22 21.499 21.653 -2.404 H 8 CKW::FUZI_8    0.000
926 H.b21 21.867 19.132 2.493 H 8 CKW::FUZI_8    0.000
927 H.b22 20.740 19.128 3.826 H 8 CKW::FUZI_8    0.000
928 H_28916 12.152 19.836 0.297 H 8 CKW::FUZI_8    0.000
929 H_289171 11.716 19.737 2.780 H 8 CKW::FUZI_8    0.000
930 H_289172 13.353 20.208 2.361 H 8 CKW::FUZI_8    0.000
931 H_289173 13.022 18.556 2.933 H 8 CKW::FUZI_8    0.000
932 H.d21 13.349 17.978 -0.829 H 8 CKW::FUZI_8    0.000
933 H.d22 14.369 19.098 0.036 H 8 CKW::FUZI_8    0.000
934 H_289091 19.974 21.284 0.466 H 8 CKW::FUZI_8    0.000
935 H_289092 19.710 20.587 -1.098 H 8 CKW::FUZI_8    0.000
936 H_289121 21.655 17.682 1.015 H 8 CKW::FUZI_8    0.000
937 H_289122 21.351 17.748 -0.716 H 8 CKW::FUZI_8    0.000
938 H.c 17.153 20.188 1.114 H 8 CKW::FUZI_8    0.000
939 H_289181 10.961 17.685 -0.209 H 8 CKW::FUZI_8    0.000
940 H_289182 10.254 18.610 1.117 H 8 CKW::FUZI_8    0.000
941 H_289183 11.227 17.185 1.477 H 8 CKW::FUZI_8    0.000
942 H_289011 16.146 18.341 3.128 H 8 CKW::FUZI_8    0.000
943 H_289012 15.303 19.352 1.977 H 8 CKW::FUZI_8    0.000
944 H_289041 16.931 16.586 -0.469 H 8 CKW::FUZI_8    0.000
945 H_289042 16.028 18.070 -0.839 H 8 CKW::FUZI_8    0.000
946 H.e 13.699 15.017 2.710 H 8 CKW::FUZI_8    0.000
947 H_288921 14.352 13.285 0.290 H 8 CKW::FUZI_8    0.000
948 H_288922 13.039 13.054 1.475 H 8 CKW::FUZI_8    0.000
949 H_288941 16.553 13.671 3.477 H 8 CKW::FUZI_8    0.000
950 H_288942 17.025 13.453 1.765 H 8 CKW::FUZI_8    0.000
951 H_288931 14.591 12.446 3.203 H 8 CKW::FUZI_8    0.000
952 H_288932 15.412 11.736 1.793 H 8 CKW::FUZI_8    0.000
953 C.b 18.938 40.816 0.027 C.3 9 CKW::FUZI_9    0.000
954 C_28893 16.159 49.031 -0.376 C.3 9 CKW::FUZI_9    0.000
955 C_28894 16.873 47.767 0.135 C.3 9 CKW::FUZI_9    0.000
956 C_28892 15.400 48.551 -1.620 C.3 9 CKW::FUZI_9    0.000
957 N 16.890 46.805 -0.977 N.am 9 CKW::FUZI_9    0.000
958 O 14.870 46.919 -3.958 O.2 9 CKW::FUZI_9    0.000
959 C.e 16.319 47.443 -2.154 C.3 9 CKW::FUZI_9    0.000
960 O 17.771 45.099 0.140 O.2 9 CKW::FUZI_9    0.000
961 C_28904 18.035 43.708 -2.370 C.3 9 CKW::FUZI_9    0.000
962 C_28901 15.833 43.513 -1.327 C.3 9 CKW::FUZI_9    0.000
963 C.d 16.786 44.548 -1.997 C.3 9 CKW::FUZI_9    0.000
964 C_28918 16.440 43.230 -6.490 C.3 9 CKW::FUZI_9    0.000
965 C.c 16.678 42.242 -1.087 C.3 9 CKW::FUZI_9    0.000
966 O 20.210 42.082 -1.607 O.2 9 CKW::FUZI_9    0.000
967 O 15.520 41.715 0.923 O.2 9 CKW::FUZI_9    0.000
968 N 18.046 42.555 -1.470 N.am 9 CKW::FUZI_9    0.000
969 C_28912 20.215 40.787 0.910 C.3 9 CKW::FUZI_9    0.000
970 C_28909 18.917 39.398 -0.602 C.3 9 CKW::FUZI_9    0.000
971 O 17.432 42.348 3.376 O.co2 9 CKW::FUZI_9    0.000
972 O 18.506 36.666 0.109 O.2 9 CKW::FUZI_9    0.000
973 C_28900 15.695 46.507 -3.164 C.2 9 CKW::FUZI_9    0.000
974 C_28897 17.210 45.499 -0.864 C.2 9 CKW::FUZI_9    0.000
975 N.d 16.127 45.215 -3.172 N.am 9 CKW::FUZI_9    0.000
976 C.d2 15.776 44.314 -4.305 C.3 9 CKW::FUZI_9    0.000
977 C_28917 16.541 45.746 -6.311 C.3 9 CKW::FUZI_9    0.000
978 C_28916 16.712 44.417 -5.542 C.3 9 CKW::FUZI_9    0.000
979 C_28908 19.133 41.854 -1.090 C.2 9 CKW::FUZI_9    0.000
980 C_28905 16.563 41.642 0.300 C.2 9 CKW::FUZI_9    0.000
981 N.b 17.670 41.033 0.814 N.am 9 CKW::FUZI_9    0.000
982 C.b2 17.579 40.350 2.133 C.3 9 CKW::FUZI_9    0.000
983 OH 18.746 40.841 4.114 O.co2 9 CKW::FUZI_9    0.000
984 C_28922 17.937 41.245 3.303 C.2 9 CKW::FUZI_9    0.000
985 C_28929 23.403 41.096 -2.658 C.2 9 CKW::FUZI_9    0.000
986 C.a2 21.095 38.061 -0.864 C.3 9 CKW::FUZI_9    0.000
987 C_28931 21.669 39.566 -2.757 C.2 9 CKW::FUZI_9    0.000
988 C_28927 22.940 39.725 -0.845 C.2 9 CKW::FUZI_9    0.000
989 C_28926 21.920 39.166 -1.506 C.2 9 CKW::FUZI_9    0.000
990 C_28935 24.139 42.062 -3.217 C.2 9 CKW::FUZI_9    0.000
991 C_28930 22.400 40.523 -3.328 C.2 9 CKW::FUZI_9    0.000
992 C_28928 23.677 40.691 -1.404 C.2 9 CKW::FUZI_9    0.000
993 C_28932 24.683 41.259 -0.730 C.2 9 CKW::FUZI_9    0.000
994 C_28933 25.411 42.222 -1.295 C.2 9 CKW::FUZI_9    0.000
995 C_28934 25.139 42.624 -2.537 C.2 9 CKW::FUZI_9    0.000
996 C.a 19.986 38.530 0.135 C.3 9 CKW::FUZI_9    0.000
997 N 20.532 39.383 1.191 N.am 9 CKW::FUZI_9    0.000
998 O 21.633 39.759 3.078 O.2 9 CKW::FUZI_9    0.000
999 C_28938 20.908 37.477 2.744 C.3 9 CKW::FUZI_9    0.000
1000 C_28936 19.394 37.248 0.705 C.2 9 CKW::FUZI_9    0.000
1001 C_28939 21.071 38.957 2.353 C.2 9 CKW::FUZI_9    0.000
1002 N.z 19.910 36.754 1.871 N.am 9 CKW::FUZI_9    0.000
1003 C.z2 19.505 35.393 2.327 C.3 9 CKW::FUZI_9    0.000
1004 C_28975 20.453 37.493 4.250 C.3 9 CKW::FUZI_9    0.000
1005 C_28944 22.337 36.852 2.611 C.3 9 CKW::FUZI_9    0.000
1006 C_28945 22.677 35.786 3.679 C.3 9 CKW::FUZI_9    0.000
1007 NH 22.477 36.276 5.073 N.2 9 CKW::FUZI_9    0.000
1008 C_28979 18.582 32.669 -0.036 C.2 9 CKW::FUZI_9    0.000
1009 C_28980 18.507 33.655 0.864 C.2 9 CKW::FUZI_9    0.000
1010 C_28976 20.797 33.875 0.840 C.2 9 CKW::FUZI_9    0.000
1011 C_28977 20.886 32.893 -0.057 C.2 9 CKW::FUZI_9    0.000
1012 C_28943 19.609 34.269 1.308 C.2 9 CKW::FUZI_9    0.000
1013 C_28984 17.475 32.062 -0.480 C.2 9 CKW::FUZI_9    0.000
1014 C_28978 19.784 32.284 -0.503 C.2 9 CKW::FUZI_9    0.000
1015 C_28981 19.860 31.299 -1.404 C.2 9 CKW::FUZI_9    0.000
1016 C_28982 18.752 30.700 -1.840 C.2 9 CKW::FUZI_9    0.000
1017 C_28983 17.561 31.081 -1.379 C.2 9 CKW::FUZI_9    0.000
1018 C_28974 21.645 37.500 5.233 C.3 9 CKW::FUZI_9    0.000
1019 H_289741 22.272 38.381 5.077 H 9 CKW::FUZI_9    0.000
1020 H_289742 21.263 37.529 6.257 H 9 CKW::FUZI_9    0.000
1021 H_28983 16.658 30.591 -1.735 H 9 CKW::FUZI_9    0.000
1022 H_28982 18.820 29.899 -2.573 H 9 CKW::FUZI_9    0.000
1023 H_28981 20.826 30.978 -1.789 H 9 CKW::FUZI_9    0.000
1024 H_28984 16.496 32.363 -0.112 H 9 CKW::FUZI_9    0.000
1025 H_28977 21.867 32.593 -0.422 H 9 CKW::FUZI_9    0.000
1026 H_28976 21.708 34.351 1.188 H 9 CKW::FUZI_9    0.000
1027 H_28980 17.535 33.968 1.240 H 9 CKW::FUZI_9    0.000
1028 H_289451 22.080 34.885 3.529 H 9 CKW::FUZI_9    0.000
1029 H_289452 23.727 35.504 3.565 H 9 CKW::FUZI_9    0.000
1030 H_289441 23.097 37.633 2.703 H 9 CKW::FUZI_9    0.000
1031 H_289442 22.476 36.430 1.615 H 9 CKW::FUZI_9    0.000
1032 H_289751 19.832 36.639 4.516 H 9 CKW::FUZI_9    0.000
1033 H_289752 19.821 38.362 4.442 H 9 CKW::FUZI_9    0.000
1034 H.z21 18.470 35.469 2.673 H 9 CKW::FUZI_9    0.000
1035 H.z22 20.094 35.084 3.187 H 9 CKW::FUZI_9    0.000
1036 H_28934 25.734 43.410 -2.996 H 9 CKW::FUZI_9    0.000
1037 H_28933 26.227 42.681 -0.743 H 9 CKW::FUZI_9    0.000
1038 H_28932 24.916 40.941 0.284 H 9 CKW::FUZI_9    0.000
1039 H_28930 22.168 40.834 -4.345 H 9 CKW::FUZI_9    0.000
1040 H_28935 23.929 42.399 -4.230 H 9 CKW::FUZI_9    0.000
1041 H_28927 23.166 39.393 0.166 H 9 CKW::FUZI_9    0.000
1042 H_28931 20.857 39.113 -3.322 H 9 CKW::FUZI_9    0.000
1043 H.a21 20.630 37.455 -1.646 H 9 CKW::FUZI_9    0.000
1044 H.a22 21.778 37.386 -0.345 H 9 CKW::FUZI_9    0.000
1045 H.b21 18.216 39.467 2.168 H 9 CKW::FUZI_9    0.000
1046 H.b22 16.557 40.003 2.304 H 9 CKW::FUZI_9    0.000
1047 H_28916 17.753 44.354 -5.222 H 9 CKW::FUZI_9    0.000
1048 H_289171 16.870 46.592 -5.705 H 9 CKW::FUZI_9    0.000
1049 H_289172 15.498 45.901 -6.597 H 9 CKW::FUZI_9    0.000
1050 H_289173 17.147 45.741 -7.220 H 9 CKW::FUZI_9    0.000
1051 H.d21 14.746 44.509 -4.615 H 9 CKW::FUZI_9    0.000
1052 H.d22 15.804 43.277 -3.961 H 9 CKW::FUZI_9    0.000
1053 H_289091 19.119 39.442 -1.674 H 9 CKW::FUZI_9    0.000
1054 H_289092 17.915 38.972 -0.512 H 9 CKW::FUZI_9    0.000
1055 H_289121 21.079 41.215 0.400 H 9 CKW::FUZI_9    0.000
1056 H_289122 20.071 41.355 1.831 H 9 CKW::FUZI_9    0.000
1057 H.c 16.332 41.463 -1.772 H 9 CKW::FUZI_9    0.000
1058 H_289181 17.108 43.265 -7.353 H 9 CKW::FUZI_9    0.000
1059 H_289182 15.409 43.250 -6.851 H 9 CKW::FUZI_9    0.000
1060 H_289183 16.607 42.282 -5.974 H 9 CKW::FUZI_9    0.000
1061 H_289011 14.977 43.261 -1.956 H 9 CKW::FUZI_9    0.000
1062 H_289012 15.419 43.909 -0.396 H 9 CKW::FUZI_9    0.000
1063 H_289041 17.982 43.312 -3.383 H 9 CKW::FUZI_9    0.000
1064 H_289042 18.951 44.297 -2.264 H 9 CKW::FUZI_9    0.000
1065 H.e 17.154 47.915 -2.681 H 9 CKW::FUZI_9    0.000
1066 H_288921 14.432 48.133 -1.330 H 9 CKW::FUZI_9    0.000
1067 H_288922 15.246 49.352 -2.346 H 9 CKW::FUZI_9    0.000
1068 H_288941 17.893 47.999 0.455 H 9 CKW::FUZI_9    0.000
1069 H_288942 16.313 47.335 0.969 H 9 CKW::FUZI_9    0.000
1070 H_288931 16.900 49.782 -0.662 H 9 CKW::FUZI_9    0.000
1071 H_288932 15.490 49.459 0.375 H 9 CKW::FUZI_9    0.000
1072 C.b 19.646 58.143 0.066 C.3 10 CKW::FUZI_10    0.000
1073 C_28893 16.068 52.404 6.480 C.3 10 CKW::FUZI_10    0.000
1074 C_28894 15.914 52.859 5.019 C.3 10 CKW::FUZI_10    0.000
1075 C_28892 16.557 53.661 7.212 C.3 10 CKW::FUZI_10    0.000
1076 N 16.695 54.095 4.874 N.am 10 CKW::FUZI_10    0.000
1077 O 17.878 56.237 7.513 O.2 10 CKW::FUZI_10    0.000
1078 C.e 17.367 54.389 6.129 C.3 10 CKW::FUZI_10    0.000
1079 O 16.413 54.390 2.692 O.2 10 CKW::FUZI_10    0.000
1080 C_28904 18.824 56.186 3.275 C.3 10 CKW::FUZI_10    0.000
1081 C_28901 16.626 57.225 2.959 C.3 10 CKW::FUZI_10    0.000
1082 C.d 17.404 56.249 3.902 C.3 10 CKW::FUZI_10    0.000
1083 C_28918 17.520 60.419 6.572 C.3 10 CKW::FUZI_10    0.000
1084 C.c 17.676 57.920 2.074 C.3 10 CKW::FUZI_10    0.000
1085 O 20.873 56.463 1.320 O.2 10 CKW::FUZI_10    0.000
1086 O 16.058 58.422 0.377 O.2 10 CKW::FUZI_10    0.000
1087 N 18.873 57.082 2.118 N.am 10 CKW::FUZI_10    0.000
1088 C_28912 20.672 57.987 -1.091 C.3 10 CKW::FUZI_10    0.000
1089 C_28909 20.096 59.538 0.580 C.3 10 CKW::FUZI_10    0.000
1090 O 18.705 58.467 -3.590 O.co2 10 CKW::FUZI_10    0.000
1091 O 21.647 61.925 0.796 O.2 10 CKW::FUZI_10    0.000
1092 C_28900 17.601 55.860 6.390 C.2 10 CKW::FUZI_10    0.000
1093 C_28897 16.797 54.841 3.756 C.2 10 CKW::FUZI_10    0.000
1094 N.d 17.503 56.721 5.334 N.am 10 CKW::FUZI_10    0.000
1095 C.d2 17.896 58.146 5.529 C.3 10 CKW::FUZI_10    0.000
1096 C_28917 15.502 59.072 5.875 C.3 10 CKW::FUZI_10    0.000
1097 C_28916 16.944 58.996 6.418 C.3 10 CKW::FUZI_10    0.000
1098 C_28908 19.878 57.154 1.213 C.2 10 CKW::FUZI_10    0.000
1099 C_28905 17.224 58.207 0.649 C.2 10 CKW::FUZI_10    0.000
1100 N.b 18.187 58.137 -0.314 N.am 10 CKW::FUZI_10    0.000
1101 C.b2 17.809 57.530 -1.620 C.3 10 CKW::FUZI_10    0.000
1102 OH 16.823 59.212 -2.925 O.co2 10 CKW::FUZI_10    0.000
1103 C_28922 17.784 58.481 -2.799 C.2 10 CKW::FUZI_10    0.000
1104 C_28929 18.012 64.476 0.939 C.2 10 CKW::FUZI_10    0.000
1105 C.a2 19.384 61.156 -1.269 C.3 10 CKW::FUZI_10    0.000
1106 C_28931 17.929 62.214 0.452 C.2 10 CKW::FUZI_10    0.000
1107 C_28927 19.396 63.571 -0.686 C.2 10 CKW::FUZI_10    0.000
1108 C_28926 18.896 62.351 -0.462 C.2 10 CKW::FUZI_10    0.000
1109 C_28935 17.585 65.536 1.634 C.2 10 CKW::FUZI_10    0.000
1110 C_28930 17.495 63.263 1.151 C.2 10 CKW::FUZI_10    0.000
1111 C_28928 18.970 64.631 0.007 C.2 10 CKW::FUZI_10    0.000
1112 C_28932 19.484 65.846 -0.216 C.2 10 CKW::FUZI_10    0.000
1113 C_28933 19.054 66.897 0.482 C.2 10 CKW::FUZI_10    0.000
1114 C_28934 18.106 66.742 1.406 C.2 10 CKW::FUZI_10    0.000
1115 C.a 20.576 60.359 -0.642 C.3 10 CKW::FUZI_10    0.000
1116 N 21.057 59.328 -1.567 N.am 10 CKW::FUZI_10    0.000
1117 O 22.220 58.622 -3.312 O.2 10 CKW::FUZI_10    0.000
1118 C_28938 22.799 60.836 -2.492 C.3 10 CKW::FUZI_10    0.000
1119 C_28936 21.703 61.313 -0.256 C.2 10 CKW::FUZI_10    0.000
1120 C_28939 22.000 59.516 -2.518 C.2 10 CKW::FUZI_10    0.000
1121 N.z 22.779 61.425 -1.096 N.am 10 CKW::FUZI_10    0.000
1122 C.z2 23.974 62.196 -0.645 C.3 10 CKW::FUZI_10    0.000
1123 C_28975 22.098 61.826 -3.483 C.3 10 CKW::FUZI_10    0.000
1124 C_28944 24.245 60.522 -3.038 C.3 10 CKW::FUZI_10    0.000
1125 C_28945 24.322 60.352 -4.577 C.3 10 CKW::FUZI_10    0.000
1126 NH 23.767 61.524 -5.311 N.2 10 CKW::FUZI_10    0.000
1127 C_28979 25.488 65.093 -2.425 C.2 10 CKW::FUZI_10    0.000
1128 C_28980 25.315 63.889 -1.870 C.2 10 CKW::FUZI_10    0.000
1129 C_28976 23.194 64.483 -1.204 C.2 10 CKW::FUZI_10    0.000
1130 C_28977 23.354 65.688 -1.751 C.2 10 CKW::FUZI_10    0.000
1131 C_28943 24.165 63.568 -1.266 C.2 10 CKW::FUZI_10    0.000
1132 C_28984 26.636 65.405 -3.038 C.2 10 CKW::FUZI_10    0.000
1133 C_28978 24.497 66.001 -2.367 C.2 10 CKW::FUZI_10    0.000
1134 C_28981 24.669 67.206 -2.922 C.2 10 CKW::FUZI_10    0.000
1135 C_28982 25.816 67.508 -3.532 C.2 10 CKW::FUZI_10    0.000
1136 C_28983 26.798 66.608 -3.589 C.2 10 CKW::FUZI_10    0.000
1137 C_28974 23.048 62.524 -4.480 C.3 10 CKW::FUZI_10    0.000
1138 H_289741 22.463 63.170 -5.139 H 10 CKW::FUZI_10    0.000
1139 H_289742 23.773 63.144 -3.951 H 10 CKW::FUZI_10    0.000
1140 H_28983 27.733 66.855 -4.087 H 10 CKW::FUZI_10    0.000
1141 H_28982 25.951 68.488 -3.982 H 10 CKW::FUZI_10    0.000
1142 H_28981 23.876 67.950 -2.882 H 10 CKW::FUZI_10    0.000
1143 H_28984 27.446 64.680 -3.093 H 10 CKW::FUZI_10    0.000
1144 H_28977 22.546 66.413 -1.690 H 10 CKW::FUZI_10    0.000
1145 H_28976 22.260 64.250 -0.703 H 10 CKW::FUZI_10    0.000
1146 H_28980 26.118 63.156 -1.916 H 10 CKW::FUZI_10    0.000
1147 H_289451 25.370 60.235 -4.863 H 10 CKW::FUZI_10    0.000
1148 H_289452 23.791 59.456 -4.903 H 10 CKW::FUZI_10    0.000
1149 H_289441 24.649 59.635 -2.544 H 10 CKW::FUZI_10    0.000
1150 H_289442 24.940 61.331 -2.828 H 10 CKW::FUZI_10    0.000
1151 H_289751 21.565 62.601 -2.930 H 10 CKW::FUZI_10    0.000
1152 H_289752 21.341 61.296 -4.068 H 10 CKW::FUZI_10    0.000
1153 H.z21 24.869 61.585 -0.778 H 10 CKW::FUZI_10    0.000
1154 H.z22 23.921 62.344 0.435 H 10 CKW::FUZI_10    0.000
1155 H_28934 17.756 67.601 1.974 H 10 CKW::FUZI_10    0.000
1156 H_28933 19.477 67.882 0.297 H 10 CKW::FUZI_10    0.000
1157 H_28932 20.257 65.988 -0.969 H 10 CKW::FUZI_10    0.000
1158 H_28930 16.712 63.120 1.894 H 10 CKW::FUZI_10    0.000
1159 H_28935 16.811 65.424 2.390 H 10 CKW::FUZI_10    0.000
1160 H_28927 20.164 63.699 -1.445 H 10 CKW::FUZI_10    0.000
1161 H_28931 17.484 61.240 0.636 H 10 CKW::FUZI_10    0.000
1162 H.a21 18.538 60.494 -1.414 H 10 CKW::FUZI_10    0.000
1163 H.a22 19.654 61.492 -2.270 H 10 CKW::FUZI_10    0.000
1164 H.b21 16.801 57.112 -1.551 H 10 CKW::FUZI_10    0.000
1165 H.b22 18.462 56.688 -1.859 H 10 CKW::FUZI_10    0.000
1166 H_28916 16.898 58.556 7.416 H 10 CKW::FUZI_10    0.000
1167 H_289171 15.471 59.601 4.920 H 10 CKW::FUZI_10    0.000
1168 H_289172 14.862 59.612 6.577 H 10 CKW::FUZI_10    0.000
1169 H_289173 15.081 58.073 5.742 H 10 CKW::FUZI_10    0.000
1170 H.d21 18.013 58.653 4.575 H 10 CKW::FUZI_10    0.000
1171 H.d22 18.885 58.147 5.995 H 10 CKW::FUZI_10    0.000
1172 H_289091 20.948 59.397 1.253 H 10 CKW::FUZI_10    0.000
1173 H_289092 19.330 60.048 1.162 H 10 CKW::FUZI_10    0.000
1174 H_289121 21.590 57.531 -0.713 H 10 CKW::FUZI_10    0.000
1175 H_289122 20.328 57.368 -1.917 H 10 CKW::FUZI_10    0.000
1176 H.c 17.933 58.888 2.510 H 10 CKW::FUZI_10    0.000
1177 H_289181 16.888 61.022 7.228 H 10 CKW::FUZI_10    0.000
1178 H_289182 17.585 60.920 5.602 H 10 CKW::FUZI_10    0.000
1179 H_289183 18.521 60.383 7.007 H 10 CKW::FUZI_10    0.000
1180 H_289011 16.032 57.956 3.501 H 10 CKW::FUZI_10    0.000
1181 H_289012 15.920 56.694 2.319 H 10 CKW::FUZI_10    0.000
1182 H_289041 19.583 56.503 3.996 H 10 CKW::FUZI_10    0.000
1183 H_289042 19.063 55.170 2.947 H 10 CKW::FUZI_10    0.000
1184 H.e 18.360 53.935 6.069 H 10 CKW::FUZI_10    0.000
1185 H_288921 15.701 54.269 7.517 H 10 CKW::FUZI_10    0.000
1186 H_288922 17.159 53.420 8.092 H 10 CKW::FUZI_10    0.000
1187 H_288941 16.279 52.091 4.332 H 10 CKW::FUZI_10    0.000
1188 H_288942 14.864 53.080 4.805 H 10 CKW::FUZI_10    0.000
1189 H_288931 16.829 51.622 6.543 H 10 CKW::FUZI_10    0.000
1190 H_288932 15.132 52.023 6.895 H 10 CKW::FUZI_10    0.000
1191 C.b 18.902 82.494 -0.363 C.3 11 CKW::FUZI_11    0.000
1192 C_28893 24.586 79.064 -1.928 C.3 11 CKW::FUZI_11    0.000
1193 C_28894 23.617 80.214 -2.246 C.3 11 CKW::FUZI_11    0.000
1194 C_28892 23.935 77.848 -2.597 C.3 11 CKW::FUZI_11    0.000
1195 N 22.314 79.598 -2.527 N.am 11 CKW::FUZI_11    0.000
1196 O 21.876 76.356 -3.921 O.2 11 CKW::FUZI_11    0.000
1197 C.e 22.433 78.147 -2.462 C.3 11 CKW::FUZI_11    0.000
1198 O 21.185 81.464 -2.956 O.2 11 CKW::FUZI_11    0.000
1199 C_28904 19.251 79.086 -1.861 C.3 11 CKW::FUZI_11    0.000
1200 C_28901 18.888 80.241 -3.907 C.3 11 CKW::FUZI_11    0.000
1201 C.d 19.966 79.365 -3.201 C.3 11 CKW::FUZI_11    0.000
1202 C_28918 18.778 75.539 -3.477 C.3 11 CKW::FUZI_11    0.000
1203 C.c 18.123 80.949 -2.760 C.3 11 CKW::FUZI_11    0.000
1204 O 18.971 80.305 0.661 O.2 11 CKW::FUZI_11    0.000
1205 O 17.986 83.049 -3.846 O.2 11 CKW::FUZI_11    0.000
1206 N 18.552 80.325 -1.512 N.am 11 CKW::FUZI_11    0.000
1207 C_28912 18.190 83.056 0.892 C.3 11 CKW::FUZI_11    0.000
1208 C_28909 20.397 82.773 -0.053 C.3 11 CKW::FUZI_11    0.000
1209 O 16.933 86.059 -0.602 O.co2 11 CKW::FUZI_11    0.000
1210 O 22.612 81.975 1.649 O.2 11 CKW::FUZI_11    0.000
1211 C_28900 21.541 77.431 -3.460 C.2 11 CKW::FUZI_11    0.000
1212 C_28897 21.188 80.249 -2.881 C.2 11 CKW::FUZI_11    0.000
1213 N.d 20.387 78.064 -3.835 N.am 11 CKW::FUZI_11    0.000
1214 C.d2 19.580 77.516 -4.965 C.3 11 CKW::FUZI_11    0.000
1215 C_28917 17.075 77.204 -4.364 C.3 11 CKW::FUZI_11    0.000
1216 C_28916 18.432 76.516 -4.624 C.3 11 CKW::FUZI_11    0.000
1217 C_28908 18.781 80.962 -0.346 C.2 11 CKW::FUZI_11    0.000
1218 C_28905 18.201 82.463 -2.801 C.2 11 CKW::FUZI_11    0.000
1219 N.b 18.478 83.137 -1.649 N.am 11 CKW::FUZI_11    0.000
1220 C.b2 18.476 84.624 -1.645 C.3 11 CKW::FUZI_11    0.000
1221 OH 16.190 84.858 -2.196 O.co2 11 CKW::FUZI_11    0.000
1222 C_28922 17.094 85.230 -1.475 C.2 11 CKW::FUZI_11    0.000
1223 C_28929 21.446 85.728 5.674 C.2 11 CKW::FUZI_11    0.000
1224 C.a2 21.010 84.509 1.669 C.3 11 CKW::FUZI_11    0.000
1225 C_28931 22.348 84.853 3.730 C.2 11 CKW::FUZI_11    0.000
1226 C_28927 20.122 85.436 3.792 C.2 11 CKW::FUZI_11    0.000
1227 C_28926 21.163 84.935 3.118 C.2 11 CKW::FUZI_11    0.000
1228 C_28935 21.573 86.115 6.948 C.2 11 CKW::FUZI_11    0.000
1229 C_28930 22.491 85.244 4.997 C.2 11 CKW::FUZI_11    0.000
1230 C_28928 20.250 85.827 5.064 C.2 11 CKW::FUZI_11    0.000
1231 C_28932 19.201 86.310 5.739 C.2 11 CKW::FUZI_11    0.000
1232 C_28933 19.337 86.692 7.009 C.2 11 CKW::FUZI_11    0.000
1233 C_28934 20.522 86.595 7.613 C.2 11 CKW::FUZI_11    0.000
1234 C.a 20.502 83.046 1.477 C.3 11 CKW::FUZI_11    0.000
1235 N 19.140 82.898 1.998 N.am 11 CKW::FUZI_11    0.000
1236 O 17.658 82.547 3.601 O.2 11 CKW::FUZI_11    0.000
1237 C_28938 19.827 81.538 3.969 C.3 11 CKW::FUZI_11    0.000
1238 C_28936 21.490 82.077 2.111 C.2 11 CKW::FUZI_11    0.000
1239 C_28939 18.794 82.381 3.198 C.2 11 CKW::FUZI_11    0.000
1240 N.z 21.099 81.328 3.184 N.am 11 CKW::FUZI_11    0.000
1241 C.z2 22.070 80.353 3.746 C.3 11 CKW::FUZI_11    0.000
1242 C_28975 19.095 80.184 4.295 C.3 11 CKW::FUZI_11    0.000
1243 C_28944 20.145 82.296 5.300 C.3 11 CKW::FUZI_11    0.000
1244 C_28945 20.194 81.395 6.555 C.3 11 CKW::FUZI_11    0.000
1245 NH 18.910 80.673 6.766 N.2 11 CKW::FUZI_11    0.000
1246 C_28979 21.700 77.457 1.413 C.2 11 CKW::FUZI_11    0.000
1247 C_28980 21.418 78.499 2.200 C.2 11 CKW::FUZI_11    0.000
1248 C_28976 23.653 78.786 2.658 C.2 11 CKW::FUZI_11    0.000
1249 C_28977 23.949 77.749 1.874 C.2 11 CKW::FUZI_11    0.000
1250 C_28943 22.385 79.173 2.834 C.2 11 CKW::FUZI_11    0.000
1251 C_28984 20.724 76.787 0.789 C.2 11 CKW::FUZI_11    0.000
1252 C_28978 22.979 77.075 1.249 C.2 11 CKW::FUZI_11    0.000
1253 C_28981 23.262 76.027 0.468 C.2 11 CKW::FUZI_11    0.000
1254 C_28982 22.283 75.364 -0.150 C.2 11 CKW::FUZI_11    0.000
1255 C_28983 21.015 75.744 0.011 C.2 11 CKW::FUZI_11    0.000
1256 C_28974 18.177 80.251 5.541 C.3 11 CKW::FUZI_11    0.000
1257 H_289741 17.346 80.938 5.377 H 11 CKW::FUZI_11    0.000
1258 H_289742 17.756 79.258 5.719 H 11 CKW::FUZI_11    0.000
1259 H_28983 20.219 75.203 -0.494 H 11 CKW::FUZI_11    0.000
1260 H_28982 22.519 74.515 -0.786 H 11 CKW::FUZI_11    0.000
1261 H_28981 24.293 75.707 0.327 H 11 CKW::FUZI_11    0.000
1262 H_28984 19.685 77.085 0.911 H 11 CKW::FUZI_11    0.000
1263 H_28977 24.990 77.455 1.752 H 11 CKW::FUZI_11    0.000
1264 H_28976 24.458 79.316 3.160 H 11 CKW::FUZI_11    0.000
1265 H_28980 20.383 78.797 2.328 H 11 CKW::FUZI_11    0.000
1266 H_289451 21.005 80.670 6.483 H 11 CKW::FUZI_11    0.000
1267 H_289452 20.383 82.023 7.430 H 11 CKW::FUZI_11    0.000
1268 H_289441 19.394 83.067 5.489 H 11 CKW::FUZI_11    0.000
1269 H_289442 21.100 82.815 5.214 H 11 CKW::FUZI_11    0.000
1270 H_289751 19.792 79.370 4.485 H 11 CKW::FUZI_11    0.000
1271 H_289752 18.504 79.865 3.433 H 11 CKW::FUZI_11    0.000
1272 H.z21 21.739 79.967 4.707 H 11 CKW::FUZI_11    0.000
1273 H.z22 22.993 80.901 3.953 H 11 CKW::FUZI_11    0.000
1274 H_28934 20.631 86.907 8.649 H 11 CKW::FUZI_11    0.000
1275 H_28933 18.481 87.083 7.554 H 11 CKW::FUZI_11    0.000
1276 H_28932 18.228 86.394 5.260 H 11 CKW::FUZI_11    0.000
1277 H_28930 23.465 85.161 5.473 H 11 CKW::FUZI_11    0.000
1278 H_28935 22.534 86.041 7.453 H 11 CKW::FUZI_11    0.000
1279 H_28927 19.156 85.517 3.297 H 11 CKW::FUZI_11    0.000
1280 H_28931 23.211 84.460 3.196 H 11 CKW::FUZI_11    0.000
1281 H.a21 20.322 85.198 1.171 H 11 CKW::FUZI_11    0.000
1282 H.a22 21.969 84.627 1.158 H 11 CKW::FUZI_11    0.000
1283 H.b21 18.880 84.999 -2.589 H 11 CKW::FUZI_11    0.000
1284 H.b22 19.104 85.015 -0.842 H 11 CKW::FUZI_11    0.000
1285 H_28916 18.287 75.908 -5.521 H 11 CKW::FUZI_11    0.000
1286 H_289171 17.088 77.801 -3.453 H 11 CKW::FUZI_11    0.000
1287 H_289172 16.286 76.455 -4.258 H 11 CKW::FUZI_11    0.000
1288 H_289173 16.806 77.851 -5.202 H 11 CKW::FUZI_11    0.000
1289 H.d21 20.272 76.975 -5.615 H 11 CKW::FUZI_11    0.000
1290 H.d22 19.202 78.319 -5.598 H 11 CKW::FUZI_11    0.000
1291 H_289091 20.775 83.619 -0.630 H 11 CKW::FUZI_11    0.000
1292 H_289092 21.016 81.923 -0.350 H 11 CKW::FUZI_11    0.000
1293 H_289121 17.966 84.119 0.809 H 11 CKW::FUZI_11    0.000
1294 H_289122 17.261 82.510 1.081 H 11 CKW::FUZI_11    0.000
1295 H.c 17.058 80.724 -2.871 H 11 CKW::FUZI_11    0.000
1296 H_289181 19.669 74.959 -3.720 H 11 CKW::FUZI_11    0.000
1297 H_289182 17.958 74.834 -3.320 H 11 CKW::FUZI_11    0.000
1298 H_289183 18.949 76.071 -2.539 H 11 CKW::FUZI_11    0.000
1299 H_289011 18.149 79.654 -4.443 H 11 CKW::FUZI_11    0.000
1300 H_289012 19.328 80.933 -4.628 H 11 CKW::FUZI_11    0.000
1301 H_289041 18.519 78.284 -1.958 H 11 CKW::FUZI_11    0.000
1302 H_289042 19.974 78.811 -1.089 H 11 CKW::FUZI_11    0.000
1303 H.e 22.094 77.848 -1.469 H 11 CKW::FUZI_11    0.000
1304 H_288921 24.222 77.815 -3.651 H 11 CKW::FUZI_11    0.000
1305 H_288922 24.221 76.908 -2.120 H 11 CKW::FUZI_11    0.000
1306 H_288941 23.541 80.905 -1.401 H 11 CKW::FUZI_11    0.000
1307 H_288942 23.953 80.751 -3.137 H 11 CKW::FUZI_11    0.000
1308 H_288931 24.632 78.910 -0.847 H 11 CKW::FUZI_11    0.000
1309 H_288932 25.594 79.255 -2.303 H 11 CKW::FUZI_11    0.000
1310 C.b 20.823 100.258 1.468 C.3 12 CKW::FUZI_12    0.000
1311 C_28893 28.078 97.785 -0.740 C.3 12 CKW::FUZI_12    0.000
1312 C_28894 26.863 98.688 -1.036 C.3 12 CKW::FUZI_12    0.000
1313 C_28892 28.460 98.116 0.711 C.3 12 CKW::FUZI_12    0.000
1314 N 26.752 99.637 0.083 N.am 12 CKW::FUZI_12    0.000
1315 O 29.008 100.134 2.886 O.2 12 CKW::FUZI_12    0.000
1316 C.e 27.998 99.571 0.832 C.3 12 CKW::FUZI_12    0.000
1317 O 24.608 100.146 -0.186 O.2 12 CKW::FUZI_12    0.000
1318 C_28904 24.382 101.505 2.253 C.3 12 CKW::FUZI_12    0.000
1319 C_28901 24.829 99.169 2.692 C.3 12 CKW::FUZI_12    0.000
1320 C.d 25.486 100.426 2.059 C.3 12 CKW::FUZI_12    0.000
1321 C_28918 25.214 101.279 5.690 C.3 12 CKW::FUZI_12    0.000
1322 C.c 23.310 99.452 2.755 C.3 12 CKW::FUZI_12    0.000
1323 O 21.815 102.462 1.528 O.2 12 CKW::FUZI_12    0.000
1324 O 22.745 97.226 2.137 O.2 12 CKW::FUZI_12    0.000
1325 N 23.104 100.792 2.231 N.am 12 CKW::FUZI_12    0.000
1326 C_28912 19.684 100.533 2.471 C.3 12 CKW::FUZI_12    0.000
1327 C_28909 20.182 100.599 0.085 C.3 12 CKW::FUZI_12    0.000
1328 O 20.100 95.695 2.112 O.co2 12 CKW::FUZI_12    0.000
1329 O 18.099 100.179 -1.836 O.2 12 CKW::FUZI_12    0.000
1330 C_28900 27.978 100.126 2.239 C.2 12 CKW::FUZI_12    0.000
1331 C_28897 25.572 100.090 0.558 C.2 12 CKW::FUZI_12    0.000
1332 N.d 26.825 100.689 2.699 N.am 12 CKW::FUZI_12    0.000
1333 C.d2 26.917 101.719 3.781 C.3 12 CKW::FUZI_12    0.000
1334 C_28917 27.397 99.958 5.631 C.3 12 CKW::FUZI_12    0.000
1335 C_28916 26.698 101.286 5.262 C.3 12 CKW::FUZI_12    0.000
1336 C_28908 21.940 101.272 1.751 C.2 12 CKW::FUZI_12    0.000
1337 C_28905 22.421 98.399 2.125 C.2 12 CKW::FUZI_12    0.000
1338 N.b 21.253 98.815 1.559 N.am 12 CKW::FUZI_12    0.000
1339 C.b2 20.260 97.807 1.090 C.3 12 CKW::FUZI_12    0.000
1340 OH 19.032 97.293 3.031 O.co2 12 CKW::FUZI_12    0.000
1341 C_28922 19.767 96.861 2.167 C.2 12 CKW::FUZI_12    0.000
1342 C_28929 18.510 104.248 -3.516 C.2 12 CKW::FUZI_12    0.000
1343 C.a2 18.436 102.471 0.306 C.3 12 CKW::FUZI_12    0.000
1344 C_28931 19.592 103.651 -1.558 C.2 12 CKW::FUZI_12    0.000
1345 C_28927 17.361 103.154 -1.825 C.2 12 CKW::FUZI_12    0.000
1346 C_28926 18.470 103.103 -1.079 C.2 12 CKW::FUZI_12    0.000
1347 C_28935 18.521 104.808 -4.730 C.2 12 CKW::FUZI_12    0.000
1348 C_28930 19.615 104.214 -2.766 C.2 12 CKW::FUZI_12    0.000
1349 C_28928 17.371 103.714 -3.039 C.2 12 CKW::FUZI_12    0.000
1350 C_28932 16.261 103.748 -3.785 C.2 12 CKW::FUZI_12    0.000
1351 C_28933 16.281 104.308 -4.995 C.2 12 CKW::FUZI_12    0.000
1352 C_28934 17.410 104.838 -5.467 C.2 12 CKW::FUZI_12    0.000
1353 C.a 18.680 100.926 0.343 C.3 12 CKW::FUZI_12    0.000
1354 N 18.436 100.469 1.710 N.am 12 CKW::FUZI_12    0.000
1355 O 17.124 99.939 3.408 O.2 12 CKW::FUZI_12    0.000
1356 C_28938 16.132 99.677 1.206 C.3 12 CKW::FUZI_12    0.000
1357 C_28936 17.783 100.209 -0.659 C.2 12 CKW::FUZI_12    0.000
1358 C_28939 17.256 100.038 2.201 C.2 12 CKW::FUZI_12    0.000
1359 N.z 16.662 99.566 -0.209 N.am 12 CKW::FUZI_12    0.000
1360 C.z2 15.886 98.738 -1.172 C.3 12 CKW::FUZI_12    0.000
1361 C_28975 15.110 100.856 1.309 C.3 12 CKW::FUZI_12    0.000
1362 C_28944 15.472 98.348 1.751 C.3 12 CKW::FUZI_12    0.000
1363 C_28945 13.971 98.131 1.434 C.3 12 CKW::FUZI_12    0.000
1364 NH 13.194 99.359 1.713 N.2 12 CKW::FUZI_12    0.000
1365 C_28979 15.618 95.031 -1.410 C.2 12 CKW::FUZI_12    0.000
1366 C_28980 15.312 96.331 -1.355 C.2 12 CKW::FUZI_12    0.000
1367 C_28976 17.543 96.869 -1.223 C.2 12 CKW::FUZI_12    0.000
1368 C_28977 17.863 95.576 -1.276 C.2 12 CKW::FUZI_12    0.000
1369 C_28943 16.265 97.264 -1.250 C.2 12 CKW::FUZI_12    0.000
1370 C_28984 14.658 94.105 -1.506 C.2 12 CKW::FUZI_12    0.000
1371 C_28978 16.907 94.649 -1.367 C.2 12 CKW::FUZI_12    0.000
1372 C_28981 17.216 93.348 -1.421 C.2 12 CKW::FUZI_12    0.000
1373 C_28982 16.251 92.432 -1.515 C.2 12 CKW::FUZI_12    0.000
1374 C_28983 14.974 92.810 -1.558 C.2 12 CKW::FUZI_12    0.000
1375 C_28974 13.665 100.504 0.903 C.3 12 CKW::FUZI_12    0.000
1376 H_289741 13.018 101.362 1.099 H 12 CKW::FUZI_12    0.000
1377 H_289742 13.602 100.268 -0.161 H 12 CKW::FUZI_12    0.000
1378 H_28983 14.188 92.062 -1.635 H 12 CKW::FUZI_12    0.000
1379 H_28982 16.507 91.377 -1.558 H 12 CKW::FUZI_12    0.000
1380 H_28981 18.255 93.026 -1.388 H 12 CKW::FUZI_12    0.000
1381 H_28984 13.610 94.398 -1.541 H 12 CKW::FUZI_12    0.000
1382 H_28977 18.912 95.287 -1.247 H 12 CKW::FUZI_12    0.000
1383 H_28976 18.343 97.597 -1.157 H 12 CKW::FUZI_12    0.000
1384 H_28980 14.268 96.636 -1.395 H 12 CKW::FUZI_12    0.000
1385 H_289451 13.808 97.828 0.402 H 12 CKW::FUZI_12    0.000
1386 H_289452 13.591 97.327 2.070 H 12 CKW::FUZI_12    0.000
1387 H_289441 15.509 98.323 2.840 H 12 CKW::FUZI_12    0.000
1388 H_289442 16.053 97.480 1.433 H 12 CKW::FUZI_12    0.000
1389 H_289751 15.446 101.698 0.702 H 12 CKW::FUZI_12    0.000
1390 H_289752 15.068 101.219 2.339 H 12 CKW::FUZI_12    0.000
1391 H.z21 15.999 99.157 -2.175 H 12 CKW::FUZI_12    0.000
1392 H.z22 14.826 98.840 -0.966 H 12 CKW::FUZI_12    0.000
1393 H_28934 17.424 105.294 -6.454 H 12 CKW::FUZI_12    0.000
1394 H_28933 15.376 104.334 -5.597 H 12 CKW::FUZI_12    0.000
1395 H_28932 15.332 103.320 -3.413 H 12 CKW::FUZI_12    0.000
1396 H_28930 20.543 104.648 -3.133 H 12 CKW::FUZI_12    0.000
1397 H_28935 19.435 105.245 -5.128 H 12 CKW::FUZI_12    0.000
1398 H_28927 16.439 102.724 -1.439 H 12 CKW::FUZI_12    0.000
1399 H_28931 20.501 103.643 -0.963 H 12 CKW::FUZI_12    0.000
1400 H.a21 19.168 102.970 0.947 H 12 CKW::FUZI_12    0.000
1401 H.a22 17.469 102.691 0.759 H 12 CKW::FUZI_12    0.000
1402 H.b21 20.715 97.206 0.298 H 12 CKW::FUZI_12    0.000
1403 H.b22 19.363 98.273 0.689 H 12 CKW::FUZI_12    0.000
1404 H_28916 27.170 102.061 5.871 H 12 CKW::FUZI_12    0.000
1405 H_289171 27.240 99.727 6.687 H 12 CKW::FUZI_12    0.000
1406 H_289172 28.473 100.035 5.468 H 12 CKW::FUZI_12    0.000
1407 H_289173 27.015 99.123 5.042 H 12 CKW::FUZI_12    0.000
1408 H.d21 26.290 102.580 3.552 H 12 CKW::FUZI_12    0.000
1409 H.d22 27.930 102.127 3.740 H 12 CKW::FUZI_12    0.000
1410 H_289091 20.296 99.764 -0.608 H 12 CKW::FUZI_12    0.000
1411 H_289092 20.687 101.426 -0.413 H 12 CKW::FUZI_12    0.000
1412 H_289121 19.693 99.802 3.284 H 12 CKW::FUZI_12    0.000
1413 H_289122 19.768 101.536 2.899 H 12 CKW::FUZI_12    0.000
1414 H.c 23.010 99.479 3.806 H 12 CKW::FUZI_12    0.000
1415 H_289181 24.643 100.510 5.176 H 12 CKW::FUZI_12    0.000
1416 H_289182 24.753 102.248 5.486 H 12 CKW::FUZI_12    0.000
1417 H_289183 25.132 101.094 6.763 H 12 CKW::FUZI_12    0.000
1418 H_289011 25.199 98.989 3.700 H 12 CKW::FUZI_12    0.000
1419 H_289012 25.062 98.270 2.116 H 12 CKW::FUZI_12    0.000
1420 H_289041 24.429 101.997 3.222 H 12 CKW::FUZI_12    0.000
1421 H_289042 24.429 102.260 1.463 H 12 CKW::FUZI_12    0.000
1422 H.e 28.712 100.200 0.292 H 12 CKW::FUZI_12    0.000
1423 H_288921 27.901 97.483 1.405 H 12 CKW::FUZI_12    0.000
1424 H_288922 29.531 98.001 0.894 H 12 CKW::FUZI_12    0.000
1425 H_288941 27.001 99.230 -1.975 H 12 CKW::FUZI_12    0.000
1426 H_288942 25.956 98.078 -1.091 H 12 CKW::FUZI_12    0.000
1427 H_288931 28.901 98.046 -1.410 H 12 CKW::FUZI_12    0.000
1428 H_288932 27.842 96.726 -0.866 H 12 CKW::FUZI_12    0.000
1429 C.b 40.412 1.156 -0.160 C.3 13 CKW::FUZI_13    0.000
1430 C_28893 39.061 7.012 -6.746 C.3 13 CKW::FUZI_13    0.000
1431 C_28894 40.019 6.846 -5.557 C.3 13 CKW::FUZI_13    0.000
1432 C_28892 37.670 6.901 -6.112 C.3 13 CKW::FUZI_13    0.000
1433 N 39.273 6.134 -4.511 N.am 13 CKW::FUZI_13    0.000
1434 O 35.769 6.442 -4.024 O.2 13 CKW::FUZI_13    0.000
1435 C.e 37.897 5.923 -4.945 C.3 13 CKW::FUZI_13    0.000
1436 O 40.920 5.964 -3.024 O.2 13 CKW::FUZI_13    0.000
1437 C_28904 38.727 3.641 -2.591 C.3 13 CKW::FUZI_13    0.000
1438 C_28901 39.303 5.234 -0.874 C.3 13 CKW::FUZI_13    0.000
1439 C.d 38.725 5.169 -2.322 C.3 13 CKW::FUZI_13    0.000
1440 C_28918 34.767 4.162 -2.016 C.3 13 CKW::FUZI_13    0.000
1441 C.c 40.217 4.002 -0.767 C.3 13 CKW::FUZI_13    0.000
1442 O 39.288 0.901 -2.286 O.2 13 CKW::FUZI_13    0.000
1443 O 40.651 4.384 1.534 O.2 13 CKW::FUZI_13    0.000
1444 N 39.589 2.990 -1.597 N.am 13 CKW::FUZI_13    0.000
1445 C_28912 41.757 0.518 -0.579 C.3 13 CKW::FUZI_13    0.000
1446 C_28909 39.598 -0.054 0.401 C.3 13 CKW::FUZI_13    0.000
1447 O 43.430 2.098 1.904 O.co2 13 CKW::FUZI_13    0.000
1448 O 39.265 -2.520 1.917 O.2 13 CKW::FUZI_13    0.000
1449 C_28900 36.898 6.043 -3.810 C.2 13 CKW::FUZI_13    0.000
1450 C_28897 39.748 5.780 -3.298 C.2 13 CKW::FUZI_13    0.000
1451 N.d 37.339 5.725 -2.554 N.am 13 CKW::FUZI_13    0.000
1452 C.d2 36.465 6.016 -1.377 C.3 13 CKW::FUZI_13    0.000
1453 C_28917 36.189 3.868 0.068 C.3 13 CKW::FUZI_13    0.000
1454 C_28916 35.512 4.888 -0.874 C.3 13 CKW::FUZI_13    0.000
1455 C_28908 39.726 1.658 -1.440 C.2 13 CKW::FUZI_13    0.000
1456 C_28905 40.520 3.560 0.648 C.2 13 CKW::FUZI_13    0.000
1457 N.b 40.638 2.222 0.882 N.am 13 CKW::FUZI_13    0.000
1458 C.b2 41.120 1.748 2.210 C.3 13 CKW::FUZI_13    0.000
1459 OH 42.541 2.957 3.640 O.co2 13 CKW::FUZI_13    0.000
1460 C_28922 42.470 2.307 2.617 C.2 13 CKW::FUZI_13    0.000
1461 C_28929 42.667 -5.474 -1.539 C.2 13 CKW::FUZI_13    0.000
1462 C.a2 40.149 -2.162 -0.897 C.3 13 CKW::FUZI_13    0.000
1463 C_28931 40.772 -4.546 -0.586 C.2 13 CKW::FUZI_13    0.000
1464 C_28927 42.159 -3.237 -1.876 C.2 13 CKW::FUZI_13    0.000
1465 C_28926 41.063 -3.355 -1.118 C.2 13 CKW::FUZI_13    0.000
1466 C_28935 43.476 -6.519 -1.746 C.2 13 CKW::FUZI_13    0.000
1467 C_28930 41.566 -5.597 -0.792 C.2 13 CKW::FUZI_13    0.000
1468 C_28928 42.966 -4.282 -2.087 C.2 13 CKW::FUZI_13    0.000
1469 C_28932 44.069 -4.154 -2.833 C.2 13 CKW::FUZI_13    0.000
1470 C_28933 44.869 -5.201 -3.033 C.2 13 CKW::FUZI_13    0.000
1471 C_28934 44.574 -6.382 -2.490 C.2 13 CKW::FUZI_13    0.000
1472 C.a 40.536 -1.292 0.341 C.3 13 CKW::FUZI_13    0.000
1473 N 41.876 -0.733 0.176 N.am 13 CKW::FUZI_13    0.000
1474 O 44.070 -0.681 0.416 O.2 13 CKW::FUZI_13    0.000
1475 C_28938 42.900 -2.104 1.992 C.3 13 CKW::FUZI_13    0.000
1476 C_28936 40.375 -2.131 1.596 C.2 13 CKW::FUZI_13    0.000
1477 C_28939 43.008 -1.136 0.796 C.2 13 CKW::FUZI_13    0.000
1478 N.z 41.473 -2.435 2.346 N.am 13 CKW::FUZI_13    0.000
1479 C.z2 41.282 -3.265 3.568 C.3 13 CKW::FUZI_13    0.000
1480 C_28975 43.621 -1.400 3.202 C.3 13 CKW::FUZI_13    0.000
1481 C_28944 43.655 -3.422 1.615 C.3 13 CKW::FUZI_13    0.000
1482 C_28945 45.194 -3.297 1.587 C.3 13 CKW::FUZI_13    0.000
1483 NH 45.676 -2.756 2.879 N.2 13 CKW::FUZI_13    0.000
1484 C_28979 38.959 -2.868 6.442 C.2 13 CKW::FUZI_13    0.000
1485 C_28980 39.692 -3.395 5.455 C.2 13 CKW::FUZI_13    0.000
1486 C_28976 40.501 -1.309 4.920 C.2 13 CKW::FUZI_13    0.000
1487 C_28977 39.775 -0.771 5.899 C.2 13 CKW::FUZI_13    0.000
1488 C_28943 40.468 -2.626 4.684 C.2 13 CKW::FUZI_13    0.000
1489 C_28984 38.184 -3.644 7.208 C.2 13 CKW::FUZI_13    0.000
1490 C_28978 39.000 -1.542 6.666 C.2 13 CKW::FUZI_13    0.000
1491 C_28981 38.267 -1.013 7.652 C.2 13 CKW::FUZI_13    0.000
1492 C_28982 37.497 -1.795 8.411 C.2 13 CKW::FUZI_13    0.000
1493 C_28983 37.456 -3.108 8.189 C.2 13 CKW::FUZI_13    0.000
1494 C_28974 45.166 -1.387 3.128 C.3 13 CKW::FUZI_13    0.000
1495 H_289741 45.521 -0.715 2.344 H 13 CKW::FUZI_13    0.000
1496 H_289742 45.566 -1.031 4.080 H 13 CKW::FUZI_13    0.000
1497 H_28983 36.828 -3.744 8.809 H 13 CKW::FUZI_13    0.000
1498 H_28982 36.903 -1.360 9.211 H 13 CKW::FUZI_13    0.000
1499 H_28981 38.291 0.058 7.844 H 13 CKW::FUZI_13    0.000
1500 H_28984 38.140 -4.718 7.039 H 13 CKW::FUZI_13    0.000
1501 H_28977 39.821 0.304 6.066 H 13 CKW::FUZI_13    0.000
1502 H_28976 41.118 -0.655 4.312 H 13 CKW::FUZI_13    0.000
1503 H_28980 39.658 -4.468 5.273 H 13 CKW::FUZI_13    0.000
1504 H_289451 45.633 -4.286 1.431 H 13 CKW::FUZI_13    0.000
1505 H_289452 45.519 -2.649 0.770 H 13 CKW::FUZI_13    0.000
1506 H_289441 43.316 -3.771 0.642 H 13 CKW::FUZI_13    0.000
1507 H_289442 43.417 -4.221 2.319 H 13 CKW::FUZI_13    0.000
1508 H_289751 43.379 -1.879 4.149 H 13 CKW::FUZI_13    0.000
1509 H_289752 43.263 -0.373 3.293 H 13 CKW::FUZI_13    0.000
1510 H.z21 42.237 -3.588 3.983 H 13 CKW::FUZI_13    0.000
1511 H.z22 40.777 -4.182 3.249 H 13 CKW::FUZI_13    0.000
1512 H_28934 45.228 -7.235 -2.655 H 13 CKW::FUZI_13    0.000
1513 H_28933 45.765 -5.092 -3.640 H 13 CKW::FUZI_13    0.000
1514 H_28932 44.323 -3.196 -3.281 H 13 CKW::FUZI_13    0.000
1515 H_28930 41.309 -6.554 -0.342 H 13 CKW::FUZI_13    0.000
1516 H_28935 43.247 -7.489 -1.308 H 13 CKW::FUZI_13    0.000
1517 H_28927 42.399 -2.272 -2.320 H 13 CKW::FUZI_13    0.000
1518 H_28931 39.881 -4.667 0.025 H 13 CKW::FUZI_13    0.000
1519 H.a21 40.156 -1.545 -1.798 H 13 CKW::FUZI_13    0.000
1520 H.a22 39.119 -2.511 -0.789 H 13 CKW::FUZI_13    0.000
1521 H.b21 41.224 0.665 2.251 H 13 CKW::FUZI_13    0.000
1522 H.b22 40.392 2.046 2.971 H 13 CKW::FUZI_13    0.000
1523 H_28916 34.749 5.385 -0.271 H 13 CKW::FUZI_13    0.000
1524 H_289171 36.641 4.375 0.923 H 13 CKW::FUZI_13    0.000
1525 H_289172 36.957 3.289 -0.442 H 13 CKW::FUZI_13    0.000
1526 H_289173 35.449 3.166 0.458 H 13 CKW::FUZI_13    0.000
1527 H.d21 35.819 6.853 -1.657 H 13 CKW::FUZI_13    0.000
1528 H.d22 37.047 6.412 -0.545 H 13 CKW::FUZI_13    0.000
1529 H_289091 38.675 -0.234 -0.156 H 13 CKW::FUZI_13    0.000
1530 H_289092 39.266 0.136 1.424 H 13 CKW::FUZI_13    0.000
1531 H_289121 41.764 0.273 -1.644 H 13 CKW::FUZI_13    0.000
1532 H_289122 42.589 1.195 -0.372 H 13 CKW::FUZI_13    0.000
1533 H.c 41.188 4.225 -1.216 H 13 CKW::FUZI_13    0.000
1534 H_289181 35.461 3.641 -2.678 H 13 CKW::FUZI_13    0.000
1535 H_289182 34.186 4.872 -2.608 H 13 CKW::FUZI_13    0.000
1536 H_289183 34.072 3.425 -1.609 H 13 CKW::FUZI_13    0.000
1537 H_289011 38.543 5.117 -0.109 H 13 CKW::FUZI_13    0.000
1538 H_289012 39.836 6.167 -0.670 H 13 CKW::FUZI_13    0.000
1539 H_289041 37.720 3.232 -2.495 H 13 CKW::FUZI_13    0.000
1540 H_289042 39.093 3.416 -3.597 H 13 CKW::FUZI_13    0.000
1541 H.e 37.826 4.897 -5.317 H 13 CKW::FUZI_13    0.000
1542 H_288921 37.364 7.880 -5.733 H 13 CKW::FUZI_13    0.000
1543 H_288922 36.919 6.539 -6.818 H 13 CKW::FUZI_13    0.000
1544 H_288941 40.908 6.281 -5.849 H 13 CKW::FUZI_13    0.000
1545 H_288942 40.312 7.827 -5.173 H 13 CKW::FUZI_13    0.000
1546 H_288931 39.209 6.193 -7.454 H 13 CKW::FUZI_13    0.000
1547 H_288932 39.205 7.962 -7.265 H 13 CKW::FUZI_13    0.000
1548 C.b 39.128 21.766 2.250 C.3 14 CKW::FUZI_14    0.000
1549 C_28893 44.068 21.276 -4.981 C.3 14 CKW::FUZI_14    0.000
1550 C_28894 43.179 22.294 -4.249 C.3 14 CKW::FUZI_14    0.000
1551 C_28892 43.143 20.075 -5.205 C.3 14 CKW::FUZI_14    0.000
1552 N 42.093 21.530 -3.622 N.am 14 CKW::FUZI_14    0.000
1553 O 40.767 18.475 -4.909 O.2 14 CKW::FUZI_14    0.000
1554 C.e 42.216 20.119 -3.979 C.3 14 CKW::FUZI_14    0.000
1555 O 41.076 23.225 -2.598 O.2 14 CKW::FUZI_14    0.000
1556 C_28904 40.426 20.421 -1.124 C.3 14 CKW::FUZI_14    0.000
1557 C_28901 38.710 21.840 -2.020 C.3 14 CKW::FUZI_14    0.000
1558 C.d 39.983 21.052 -2.467 C.3 14 CKW::FUZI_14    0.000
1559 C_28918 36.456 18.081 -2.946 C.3 14 CKW::FUZI_14    0.000
1560 C.c 39.006 22.262 -0.568 C.3 14 CKW::FUZI_14    0.000
1561 O 40.601 19.932 1.621 O.2 14 CKW::FUZI_14    0.000
1562 O 36.782 23.038 -0.224 O.2 14 CKW::FUZI_14    0.000
1563 N 39.830 21.192 -0.030 N.am 14 CKW::FUZI_14    0.000
1564 C_28912 40.021 22.961 2.634 C.3 14 CKW::FUZI_14    0.000
1565 C_28909 39.040 21.062 3.638 C.3 14 CKW::FUZI_14    0.000
1566 O 36.621 23.482 4.581 O.co2 14 CKW::FUZI_14    0.000
1567 O 40.810 19.052 4.738 O.2 14 CKW::FUZI_14    0.000
1568 C_28900 40.875 19.435 -4.169 C.2 14 CKW::FUZI_14    0.000
1569 C_28897 41.086 22.042 -2.881 C.2 14 CKW::FUZI_14    0.000
1570 N.d 39.811 19.965 -3.497 N.am 14 CKW::FUZI_14    0.000
1571 C.d2 38.440 19.438 -3.730 C.3 14 CKW::FUZI_14    0.000
1572 C_28917 38.787 17.169 -2.587 C.3 14 CKW::FUZI_14    0.000
1573 C_28916 37.924 18.449 -2.651 C.3 14 CKW::FUZI_14    0.000
1574 C_28908 39.931 20.886 1.278 C.2 14 CKW::FUZI_14    0.000
1575 C_28905 37.781 22.558 0.279 C.2 14 CKW::FUZI_14    0.000
1576 N.b 37.853 22.251 1.609 N.am 14 CKW::FUZI_14    0.000
1577 C.b2 36.660 22.419 2.479 C.3 14 CKW::FUZI_14    0.000
1578 OH 36.909 24.724 2.872 O.co2 14 CKW::FUZI_14    0.000
1579 C_28922 36.733 23.635 3.381 C.2 14 CKW::FUZI_14    0.000
1580 C_28929 38.577 19.141 8.575 C.2 14 CKW::FUZI_14    0.000
1581 C.a2 40.111 21.929 5.809 C.3 14 CKW::FUZI_14    0.000
1582 C_28931 40.374 20.186 7.557 C.2 14 CKW::FUZI_14    0.000
1583 C_28927 38.230 20.763 6.953 C.2 14 CKW::FUZI_14    0.000
1584 C_28926 39.550 20.917 6.798 C.2 14 CKW::FUZI_14    0.000
1585 C_28935 38.084 18.258 9.450 C.2 14 CKW::FUZI_14    0.000
1586 C_28930 39.895 19.303 8.433 C.2 14 CKW::FUZI_14    0.000
1587 C_28928 37.736 19.881 7.828 C.2 14 CKW::FUZI_14    0.000
1588 C_28932 36.415 19.726 7.971 C.2 14 CKW::FUZI_14    0.000
1589 C_28933 35.932 18.842 8.846 C.2 14 CKW::FUZI_14    0.000
1590 C_28934 36.766 18.109 9.584 C.2 14 CKW::FUZI_14    0.000
1591 C.a 40.385 21.368 4.376 C.3 14 CKW::FUZI_14    0.000
1592 N 41.005 22.433 3.583 N.am 14 CKW::FUZI_14    0.000
1593 O 42.705 23.731 3.004 O.2 14 CKW::FUZI_14    0.000
1594 C_28938 43.308 21.607 4.005 C.3 14 CKW::FUZI_14    0.000
1595 C_28936 41.286 20.139 4.459 C.2 14 CKW::FUZI_14    0.000
1596 C_28939 42.329 22.689 3.509 C.2 14 CKW::FUZI_14    0.000
1597 N.z 42.619 20.276 4.189 N.am 14 CKW::FUZI_14    0.000
1598 C.z2 43.476 19.061 4.262 C.3 14 CKW::FUZI_14    0.000
1599 C_28975 43.860 22.089 5.385 C.3 14 CKW::FUZI_14    0.000
1600 C_28944 44.477 21.587 2.947 C.3 14 CKW::FUZI_14    0.000
1601 C_28945 45.589 22.615 3.262 C.3 14 CKW::FUZI_14    0.000
1602 NH 46.230 22.324 4.574 N.2 14 CKW::FUZI_14    0.000
1603 C_28979 42.931 17.557 0.885 C.2 14 CKW::FUZI_14    0.000
1604 C_28980 43.247 18.418 1.858 C.2 14 CKW::FUZI_14    0.000
1605 C_28976 42.784 16.823 3.448 C.2 14 CKW::FUZI_14    0.000
1606 C_28977 42.471 15.952 2.488 C.2 14 CKW::FUZI_14    0.000
1607 C_28943 43.170 18.067 3.148 C.2 14 CKW::FUZI_14    0.000
1608 C_28984 42.995 17.923 -0.400 C.2 14 CKW::FUZI_14    0.000
1609 C_28978 42.536 16.311 1.203 C.2 14 CKW::FUZI_14    0.000
1610 C_28981 42.210 15.452 0.232 C.2 14 CKW::FUZI_14    0.000
1611 C_28982 42.274 15.826 -1.047 C.2 14 CKW::FUZI_14    0.000
1612 C_28983 42.666 17.060 -1.362 C.2 14 CKW::FUZI_14    0.000
1613 C_28974 45.345 21.729 5.616 C.3 14 CKW::FUZI_14    0.000
1614 H_289741 45.654 22.113 6.591 H 14 CKW::FUZI_14    0.000
1615 H_289742 45.476 20.645 5.623 H 14 CKW::FUZI_14    0.000
1616 H_28983 42.718 17.362 -2.405 H 14 CKW::FUZI_14    0.000
1617 H_28982 42.006 15.125 -1.833 H 14 CKW::FUZI_14    0.000
1618 H_28981 41.888 14.441 0.475 H 14 CKW::FUZI_14    0.000
1619 H_28984 43.313 18.927 -0.672 H 14 CKW::FUZI_14    0.000
1620 H_28977 42.153 14.949 2.764 H 14 CKW::FUZI_14    0.000
1621 H_28976 42.709 16.513 4.488 H 14 CKW::FUZI_14    0.000
1622 H_28980 43.549 19.425 1.591 H 14 CKW::FUZI_14    0.000
1623 H_289451 46.354 22.563 2.483 H 14 CKW::FUZI_14    0.000
1624 H_289452 45.187 23.630 3.278 H 14 CKW::FUZI_14    0.000
1625 H_289441 44.081 21.775 1.945 H 14 CKW::FUZI_14    0.000
1626 H_289442 44.980 20.627 2.871 H 14 CKW::FUZI_14    0.000
1627 H_289751 43.265 21.671 6.199 H 14 CKW::FUZI_14    0.000
1628 H_289752 43.769 23.176 5.469 H 14 CKW::FUZI_14    0.000
1629 H.z21 43.281 18.587 5.228 H 14 CKW::FUZI_14    0.000
1630 H.z22 44.538 19.294 4.272 H 14 CKW::FUZI_14    0.000
1631 H_28934 36.370 17.390 10.297 H 14 CKW::FUZI_14    0.000
1632 H_28933 34.858 18.720 8.957 H 14 CKW::FUZI_14    0.000
1633 H_28932 35.723 20.317 7.375 H 14 CKW::FUZI_14    0.000
1634 H_28930 40.590 18.718 9.032 H 14 CKW::FUZI_14    0.000
1635 H_28935 38.753 17.654 10.060 H 14 CKW::FUZI_14    0.000
1636 H_28927 37.546 21.365 6.359 H 14 CKW::FUZI_14    0.000
1637 H_28931 41.450 20.303 7.459 H 14 CKW::FUZI_14    0.000
1638 H.a21 39.433 22.784 5.739 H 14 CKW::FUZI_14    0.000
1639 H.a22 41.039 22.336 6.216 H 14 CKW::FUZI_14    0.000
1640 H.b21 36.499 21.527 3.088 H 14 CKW::FUZI_14    0.000
1641 H.b22 35.760 22.543 1.872 H 14 CKW::FUZI_14    0.000
1642 H_28916 37.951 18.930 -1.672 H 14 CKW::FUZI_14    0.000
1643 H_289171 39.818 17.405 -2.316 H 14 CKW::FUZI_14    0.000
1644 H_289172 38.793 16.656 -3.552 H 14 CKW::FUZI_14    0.000
1645 H_289173 38.395 16.481 -1.835 H 14 CKW::FUZI_14    0.000
1646 H.d21 38.415 18.924 -4.694 H 14 CKW::FUZI_14    0.000
1647 H.d22 37.744 20.272 -3.838 H 14 CKW::FUZI_14    0.000
1648 H_289091 38.825 19.996 3.536 H 14 CKW::FUZI_14    0.000
1649 H_289092 38.237 21.478 4.235 H 14 CKW::FUZI_14    0.000
1650 H_289121 40.509 23.384 1.751 H 14 CKW::FUZI_14    0.000
1651 H_289122 39.442 23.740 3.135 H 14 CKW::FUZI_14    0.000
1652 H.c 39.606 23.175 -0.559 H 14 CKW::FUZI_14    0.000
1653 H_289181 36.366 17.587 -3.917 H 14 CKW::FUZI_14    0.000
1654 H_289182 35.831 18.977 -2.957 H 14 CKW::FUZI_14    0.000
1655 H_289183 36.067 17.407 -2.179 H 14 CKW::FUZI_14    0.000
1656 H_289011 37.821 21.212 -1.984 H 14 CKW::FUZI_14    0.000
1657 H_289012 38.492 22.695 -2.666 H 14 CKW::FUZI_14    0.000
1658 H_289041 40.075 19.390 -1.045 H 14 CKW::FUZI_14    0.000
1659 H_289042 41.515 20.427 -1.028 H 14 CKW::FUZI_14    0.000
1660 H.e 42.707 19.617 -3.141 H 14 CKW::FUZI_14    0.000
1661 H_288921 42.566 20.224 -6.122 H 14 CKW::FUZI_14    0.000
1662 H_288922 43.693 19.134 -5.276 H 14 CKW::FUZI_14    0.000
1663 H_288941 43.752 22.839 -3.494 H 14 CKW::FUZI_14    0.000
1664 H_288942 42.746 22.996 -4.966 H 14 CKW::FUZI_14    0.000
1665 H_288931 44.900 20.984 -4.336 H 14 CKW::FUZI_14    0.000
1666 H_288932 44.467 21.673 -5.918 H 14 CKW::FUZI_14    0.000
1667 C.b 39.302 37.452 -1.789 C.3 15 CKW::FUZI_15    0.000
1668 C_28893 46.340 38.746 4.019 C.3 15 CKW::FUZI_15    0.000
1669 C_28894 45.546 39.050 2.736 C.3 15 CKW::FUZI_15    0.000
1670 C_28892 45.695 37.462 4.556 C.3 15 CKW::FUZI_15    0.000
1671 N 44.287 38.297 2.825 N.am 15 CKW::FUZI_15    0.000
1672 O 43.600 35.513 4.993 O.2 15 CKW::FUZI_15    0.000
1673 C.e 44.235 37.621 4.112 C.3 15 CKW::FUZI_15    0.000
1674 O 43.479 38.862 0.838 O.2 15 CKW::FUZI_15    0.000
1675 C_28904 40.966 37.695 1.678 C.3 15 CKW::FUZI_15    0.000
1676 C_28901 42.531 36.103 0.713 C.3 15 CKW::FUZI_15    0.000
1677 C.d 42.342 37.034 1.947 C.3 15 CKW::FUZI_15    0.000
1678 C_28918 39.705 36.546 4.782 C.3 15 CKW::FUZI_15    0.000
1679 C.c 41.681 36.736 -0.404 C.3 15 CKW::FUZI_15    0.000
1680 O 38.690 38.582 0.285 O.2 15 CKW::FUZI_15    0.000
1681 O 41.704 34.730 -1.698 O.2 15 CKW::FUZI_15    0.000
1682 N 40.638 37.508 0.262 N.am 15 CKW::FUZI_15    0.000
1683 C_28912 37.812 37.611 -2.190 C.3 15 CKW::FUZI_15    0.000
1684 C_28909 39.926 38.513 -2.720 C.3 15 CKW::FUZI_15    0.000
1685 O 38.545 35.824 -5.107 O.co2 15 CKW::FUZI_15    0.000
1686 O 40.393 41.286 -2.109 O.2 15 CKW::FUZI_15    0.000
1687 C_28900 43.396 36.365 4.149 C.2 15 CKW::FUZI_15    0.000
1688 C_28897 43.400 38.145 1.820 C.2 15 CKW::FUZI_15    0.000
1689 N.d 42.393 36.256 3.233 N.am 15 CKW::FUZI_15    0.000
1690 C.d2 41.378 35.172 3.369 C.3 15 CKW::FUZI_15    0.000
1691 C_28917 39.543 34.026 4.683 C.3 15 CKW::FUZI_15    0.000
1692 C_28916 40.506 35.232 4.655 C.3 15 CKW::FUZI_15    0.000
1693 C_28908 39.501 37.918 -0.336 C.2 15 CKW::FUZI_15    0.000
1694 C_28905 41.124 35.766 -1.432 C.2 15 CKW::FUZI_15    0.000
1695 N.b 39.942 36.112 -2.021 N.am 15 CKW::FUZI_15    0.000
1696 C.b2 39.263 35.182 -2.958 C.3 15 CKW::FUZI_15    0.000
1697 OH 40.636 35.507 -4.838 O.co2 15 CKW::FUZI_15    0.000
1698 C_28922 39.497 35.522 -4.416 C.2 15 CKW::FUZI_15    0.000
1699 C_28929 41.937 42.015 -6.150 C.2 15 CKW::FUZI_15    0.000
1700 C.a2 38.682 39.998 -4.390 C.3 15 CKW::FUZI_15    0.000
1701 C_28931 40.851 40.042 -5.614 C.2 15 CKW::FUZI_15    0.000
1702 C_28927 39.916 42.058 -5.016 C.2 15 CKW::FUZI_15    0.000
1703 C_28926 39.863 40.721 -5.020 C.2 15 CKW::FUZI_15    0.000
1704 C_28935 42.966 42.667 -6.702 C.2 15 CKW::FUZI_15    0.000
1705 C_28930 41.880 40.681 -6.170 C.2 15 CKW::FUZI_15    0.000
1706 C_28928 40.943 42.711 -5.568 C.2 15 CKW::FUZI_15    0.000
1707 C_28932 40.995 44.047 -5.548 C.2 15 CKW::FUZI_15    0.000
1708 C_28933 42.025 44.689 -6.100 C.2 15 CKW::FUZI_15    0.000
1709 C_28934 43.010 44.000 -6.677 C.2 15 CKW::FUZI_15    0.000
1710 C.a 38.863 39.641 -2.880 C.3 15 CKW::FUZI_15    0.000
1711 N 37.616 39.052 -2.390 N.am 15 CKW::FUZI_15    0.000
1712 O 35.496 39.180 -1.793 O.2 15 CKW::FUZI_15    0.000
1713 C_28938 36.820 41.182 -1.380 C.3 15 CKW::FUZI_15    0.000
1714 C_28936 39.248 40.873 -2.068 C.2 15 CKW::FUZI_15    0.000
1715 C_28939 36.575 39.738 -1.876 C.2 15 CKW::FUZI_15    0.000
1716 N.z 38.303 41.481 -1.288 N.am 15 CKW::FUZI_15    0.000
1717 C.z2 38.737 42.628 -0.446 C.3 15 CKW::FUZI_15    0.000
1718 C_28975 36.035 41.310 -0.009 C.3 15 CKW::FUZI_15    0.000
1719 C_28944 36.163 42.113 -2.447 C.3 15 CKW::FUZI_15    0.000
1720 C_28945 35.797 43.511 -1.916 C.3 15 CKW::FUZI_15    0.000
1721 NH 34.829 43.361 -0.808 N.2 15 CKW::FUZI_15    0.000
1722 C_28979 40.469 41.327 2.594 C.2 15 CKW::FUZI_15    0.000
1723 C_28980 39.527 41.600 1.685 C.2 15 CKW::FUZI_15    0.000
1724 C_28976 41.057 42.766 0.426 C.2 15 CKW::FUZI_15    0.000
1725 C_28977 42.008 42.496 1.320 C.2 15 CKW::FUZI_15    0.000
1726 C_28943 39.809 42.317 0.592 C.2 15 CKW::FUZI_15    0.000
1727 C_28984 40.179 40.610 3.687 C.2 15 CKW::FUZI_15    0.000
1728 C_28978 41.723 41.776 2.408 C.2 15 CKW::FUZI_15    0.000
1729 C_28981 42.667 41.502 3.315 C.2 15 CKW::FUZI_15    0.000
1730 C_28982 42.369 40.788 4.400 C.2 15 CKW::FUZI_15    0.000
1731 C_28983 41.128 40.341 4.585 C.2 15 CKW::FUZI_15    0.000
1732 C_28974 35.434 42.694 0.367 C.3 15 CKW::FUZI_15    0.000
1733 H_289741 34.649 42.536 1.111 H 15 CKW::FUZI_15    0.000
1734 H_289742 36.166 43.359 0.826 H 15 CKW::FUZI_15    0.000
1735 H_28983 40.887 39.759 5.471 H 15 CKW::FUZI_15    0.000
1736 H_28982 43.141 40.571 5.135 H 15 CKW::FUZI_15    0.000
1737 H_28981 43.685 41.861 3.177 H 15 CKW::FUZI_15    0.000
1738 H_28984 39.170 40.238 3.851 H 15 CKW::FUZI_15    0.000
1739 H_28977 43.016 42.870 1.155 H 15 CKW::FUZI_15    0.000
1740 H_28976 41.312 43.356 -0.452 H 15 CKW::FUZI_15    0.000
1741 H_28980 38.517 41.234 1.840 H 15 CKW::FUZI_15    0.000
1742 H_289451 36.687 44.044 -1.571 H 15 CKW::FUZI_15    0.000
1743 H_289452 35.332 44.093 -2.715 H 15 CKW::FUZI_15    0.000
1744 H_289441 35.245 41.656 -2.826 H 15 CKW::FUZI_15    0.000
1745 H_289442 36.828 42.231 -3.304 H 15 CKW::FUZI_15    0.000
1746 H_289751 36.647 40.936 0.810 H 15 CKW::FUZI_15    0.000
1747 H_289752 35.160 40.660 -0.013 H 15 CKW::FUZI_15    0.000
1748 H.z21 37.907 43.084 0.067 H 15 CKW::FUZI_15    0.000
1749 H.z22 39.116 43.396 -1.127 H 15 CKW::FUZI_15    0.000
1750 H_28934 43.849 44.524 -7.127 H 15 CKW::FUZI_15    0.000
1751 H_28933 42.062 45.775 -6.081 H 15 CKW::FUZI_15    0.000
1752 H_28932 40.199 44.623 -5.080 H 15 CKW::FUZI_15    0.000
1753 H_28930 42.672 40.102 -6.642 H 15 CKW::FUZI_15    0.000
1754 H_28935 43.776 42.117 -7.177 H 15 CKW::FUZI_15    0.000
1755 H_28927 39.111 42.621 -4.545 H 15 CKW::FUZI_15    0.000
1756 H_28931 40.824 38.956 -5.649 H 15 CKW::FUZI_15    0.000
1757 H.a21 37.790 40.615 -4.509 H 15 CKW::FUZI_15    0.000
1758 H.a22 38.472 39.085 -4.954 H 15 CKW::FUZI_15    0.000
1759 H.b21 38.188 35.153 -2.767 H 15 CKW::FUZI_15    0.000
1760 H.b22 39.633 34.164 -2.812 H 15 CKW::FUZI_15    0.000
1761 H_28916 41.152 35.152 5.531 H 15 CKW::FUZI_15    0.000
1762 H_289171 38.860 34.054 3.830 H 15 CKW::FUZI_15    0.000
1763 H_289172 38.950 34.029 5.600 H 15 CKW::FUZI_15    0.000
1764 H_289173 40.103 33.089 4.645 H 15 CKW::FUZI_15    0.000
1765 H.d21 41.911 34.217 3.354 H 15 CKW::FUZI_15    0.000
1766 H.d22 40.702 35.174 2.511 H 15 CKW::FUZI_15    0.000
1767 H_289091 40.128 38.053 -3.687 H 15 CKW::FUZI_15    0.000
1768 H_289092 40.886 38.869 -2.341 H 15 CKW::FUZI_15    0.000
1769 H_289121 37.581 37.129 -3.140 H 15 CKW::FUZI_15    0.000
1770 H_289122 37.153 37.220 -1.410 H 15 CKW::FUZI_15    0.000
1771 H.c 42.298 37.444 -0.964 H 15 CKW::FUZI_15    0.000
1772 H_289181 38.964 36.632 3.984 H 15 CKW::FUZI_15    0.000
1773 H_289182 40.367 37.412 4.742 H 15 CKW::FUZI_15    0.000
1774 H_289183 39.174 36.575 5.736 H 15 CKW::FUZI_15    0.000
1775 H_289011 42.166 35.093 0.907 H 15 CKW::FUZI_15    0.000
1776 H_289012 43.580 36.015 0.418 H 15 CKW::FUZI_15    0.000
1777 H_289041 40.172 37.234 2.261 H 15 CKW::FUZI_15    0.000
1778 H_289042 40.995 38.760 1.910 H 15 CKW::FUZI_15    0.000
1779 H.e 43.742 38.310 4.803 H 15 CKW::FUZI_15    0.000
1780 H_288921 46.144 36.588 4.076 H 15 CKW::FUZI_15    0.000
1781 H_288922 45.794 37.371 5.640 H 15 CKW::FUZI_15    0.000
1782 H_288941 45.347 40.121 2.645 H 15 CKW::FUZI_15    0.000
1783 H_288942 46.104 38.702 1.863 H 15 CKW::FUZI_15    0.000
1784 H_288931 46.200 39.557 4.737 H 15 CKW::FUZI_15    0.000
1785 H_288932 47.408 38.622 3.825 H 15 CKW::FUZI_15    0.000
1786 C.b 39.936 59.130 2.037 C.3 16 CKW::FUZI_16    0.000
1787 C_28893 44.838 51.012 2.968 C.3 16 CKW::FUZI_16    0.000
1788 C_28894 43.954 51.612 1.862 C.3 16 CKW::FUZI_16    0.000
1789 C_28892 44.422 51.779 4.229 C.3 16 CKW::FUZI_16    0.000
1790 N 43.468 52.907 2.359 N.am 16 CKW::FUZI_16    0.000
1791 O 43.315 53.929 5.790 O.2 16 CKW::FUZI_16    0.000
1792 C.e 44.040 53.158 3.671 C.3 16 CKW::FUZI_16    0.000
1793 O 42.303 53.492 0.562 O.2 16 CKW::FUZI_16    0.000
1794 C_28904 42.411 56.178 1.854 C.3 16 CKW::FUZI_16    0.000
1795 C_28901 40.418 54.834 2.277 C.3 16 CKW::FUZI_16    0.000
1796 C.d 41.959 54.861 2.527 C.3 16 CKW::FUZI_16    0.000
1797 C_28918 41.305 58.141 5.883 C.3 16 CKW::FUZI_16    0.000
1798 C.c 40.035 56.248 1.785 C.3 16 CKW::FUZI_16    0.000
1799 O 42.312 58.990 1.569 O.2 16 CKW::FUZI_16    0.000
1800 O 37.938 56.205 2.905 O.2 16 CKW::FUZI_16    0.000
1801 N 41.243 57.058 1.821 N.am 16 CKW::FUZI_16    0.000
1802 C_28912 40.222 60.411 2.868 C.3 16 CKW::FUZI_16    0.000
1803 C_28909 39.434 59.698 0.680 C.3 16 CKW::FUZI_16    0.000
1804 O 36.135 58.473 1.656 O.co2 16 CKW::FUZI_16    0.000
1805 O 37.749 61.393 -0.898 O.2 16 CKW::FUZI_16    0.000
1806 C_28900 43.185 54.009 4.583 C.2 16 CKW::FUZI_16    0.000
1807 C_28897 42.588 53.709 1.726 C.2 16 CKW::FUZI_16    0.000
1808 N.d 42.293 54.865 4.003 N.am 16 CKW::FUZI_16    0.000
1809 C.d2 41.557 55.844 4.863 C.3 16 CKW::FUZI_16    0.000
1810 C_28917 43.583 57.049 5.913 C.3 16 CKW::FUZI_16    0.000
1811 C_28916 42.266 57.203 5.123 C.3 16 CKW::FUZI_16    0.000
1812 C_28908 41.266 58.405 1.780 C.2 16 CKW::FUZI_16    0.000
1813 C_28905 38.857 56.888 2.494 C.2 16 CKW::FUZI_16    0.000
1814 N.b 38.876 58.244 2.650 N.am 16 CKW::FUZI_16    0.000
1815 C.b2 37.731 58.912 3.336 C.3 16 CKW::FUZI_16    0.000
1816 OH 36.167 60.439 2.476 O.co2 16 CKW::FUZI_16    0.000
1817 C_28922 36.589 59.302 2.418 C.2 16 CKW::FUZI_16    0.000
1818 C_28929 40.820 61.829 -4.071 C.2 16 CKW::FUZI_16    0.000
1819 C.a2 40.693 61.874 0.143 C.3 16 CKW::FUZI_16    0.000
1820 C_28931 41.301 60.832 -2.037 C.2 16 CKW::FUZI_16    0.000
1821 C_28927 40.229 62.866 -2.084 C.2 16 CKW::FUZI_16    0.000
1822 C_28926 40.731 61.846 -1.379 C.2 16 CKW::FUZI_16    0.000
1823 C_28935 40.852 61.826 -5.408 C.2 16 CKW::FUZI_16    0.000
1824 C_28930 41.341 60.818 -3.370 C.2 16 CKW::FUZI_16    0.000
1825 C_28928 40.261 62.865 -3.420 C.2 16 CKW::FUZI_16    0.000
1826 C_28932 39.744 63.884 -4.117 C.2 16 CKW::FUZI_16    0.000
1827 C_28933 39.780 63.872 -5.450 C.2 16 CKW::FUZI_16    0.000
1828 C_28934 40.332 62.845 -6.095 C.2 16 CKW::FUZI_16    0.000
1829 C.a 39.414 61.250 0.795 C.3 16 CKW::FUZI_16    0.000
1830 N 39.466 61.494 2.235 N.am 16 CKW::FUZI_16    0.000
1831 O 39.156 62.704 4.064 O.2 16 CKW::FUZI_16    0.000
1832 C_28938 38.007 63.493 2.072 C.3 16 CKW::FUZI_16    0.000
1833 C_28936 38.144 61.821 0.172 C.2 16 CKW::FUZI_16    0.000
1834 C_28939 38.923 62.551 2.880 C.2 16 CKW::FUZI_16    0.000
1835 N.z 37.451 62.780 0.858 N.am 16 CKW::FUZI_16    0.000
1836 C.z2 36.101 63.186 0.368 C.3 16 CKW::FUZI_16    0.000
1837 C_28975 38.902 64.688 1.595 C.3 16 CKW::FUZI_16    0.000
1838 C_28944 36.908 64.046 3.057 C.3 16 CKW::FUZI_16    0.000
1839 C_28945 37.413 65.143 4.031 C.3 16 CKW::FUZI_16    0.000
1840 NH 38.072 66.278 3.326 N.2 16 CKW::FUZI_16    0.000
1841 C_28979 35.059 66.642 -0.533 C.2 16 CKW::FUZI_16    0.000
1842 C_28980 35.137 65.453 0.074 C.2 16 CKW::FUZI_16    0.000
1843 C_28976 36.805 64.806 -1.373 C.2 16 CKW::FUZI_16    0.000
1844 C_28977 36.737 65.986 -1.989 C.2 16 CKW::FUZI_16    0.000
1845 C_28943 36.015 64.530 -0.331 C.2 16 CKW::FUZI_16    0.000
1846 C_28984 34.187 67.567 -0.117 C.2 16 CKW::FUZI_16    0.000
1847 C_28978 35.869 66.913 -1.574 C.2 16 CKW::FUZI_16    0.000
1848 C_28981 35.793 68.102 -2.181 C.2 16 CKW::FUZI_16    0.000
1849 C_28982 34.920 69.018 -1.758 C.2 16 CKW::FUZI_16    0.000
1850 C_28983 34.118 68.751 -0.728 C.2 16 CKW::FUZI_16    0.000
1851 C_28974 38.309 66.087 1.871 C.3 16 CKW::FUZI_16    0.000
1852 H_289741 39.014 66.849 1.529 H 16 CKW::FUZI_16    0.000
1853 H_289742 37.372 66.222 1.331 H 16 CKW::FUZI_16    0.000
1854 H_28983 33.407 69.498 -0.385 H 16 CKW::FUZI_16    0.000
1855 H_28982 34.863 69.983 -2.255 H 16 CKW::FUZI_16    0.000
1856 H_28981 36.441 68.333 -3.024 H 16 CKW::FUZI_16    0.000
1857 H_28984 33.526 67.363 0.723 H 16 CKW::FUZI_16    0.000
1858 H_28977 37.394 66.186 -2.832 H 16 CKW::FUZI_16    0.000
1859 H_28976 37.513 64.064 -1.730 H 16 CKW::FUZI_16    0.000
1860 H_28980 34.481 65.235 0.914 H 16 CKW::FUZI_16    0.000
1861 H_289451 36.557 65.536 4.585 H 16 CKW::FUZI_16    0.000
1862 H_289452 38.113 64.732 4.759 H 16 CKW::FUZI_16    0.000
1863 H_289441 36.462 63.224 3.622 H 16 CKW::FUZI_16    0.000
1864 H_289442 36.093 64.527 2.522 H 16 CKW::FUZI_16    0.000
1865 H_289751 39.103 64.608 0.525 H 16 CKW::FUZI_16    0.000
1866 H_289752 39.878 64.646 2.085 H 16 CKW::FUZI_16    0.000
1867 H.z21 35.385 63.131 1.190 H 16 CKW::FUZI_16    0.000
1868 H.z22 35.734 62.438 -0.339 H 16 CKW::FUZI_16    0.000
1869 H_28934 40.361 62.838 -7.181 H 16 CKW::FUZI_16    0.000
1870 H_28933 39.357 64.702 -6.011 H 16 CKW::FUZI_16    0.000
1871 H_28932 39.291 64.729 -3.604 H 16 CKW::FUZI_16    0.000
1872 H_28930 41.806 59.976 -3.879 H 16 CKW::FUZI_16    0.000
1873 H_28935 41.302 60.995 -5.947 H 16 CKW::FUZI_16    0.000
1874 H_28927 39.785 63.707 -1.558 H 16 CKW::FUZI_16    0.000
1875 H_28931 41.742 60.003 -1.489 H 16 CKW::FUZI_16    0.000
1876 H.a21 41.583 61.373 0.529 H 16 CKW::FUZI_16    0.000
1877 H.a22 40.789 62.911 0.471 H 16 CKW::FUZI_16    0.000
1878 H.b21 38.030 59.808 3.878 H 16 CKW::FUZI_16    0.000
1879 H.b22 37.308 58.235 4.083 H 16 CKW::FUZI_16    0.000
1880 H_28916 42.502 57.685 4.177 H 16 CKW::FUZI_16    0.000
1881 H_289171 44.316 56.480 5.338 H 16 CKW::FUZI_16    0.000
1882 H_289172 43.410 56.540 6.864 H 16 CKW::FUZI_16    0.000
1883 H_289173 44.018 58.028 6.123 H 16 CKW::FUZI_16    0.000
1884 H.d21 41.347 55.375 5.827 H 16 CKW::FUZI_16    0.000
1885 H.d22 40.583 56.073 4.435 H 16 CKW::FUZI_16    0.000
1886 H_289091 38.435 59.318 0.467 H 16 CKW::FUZI_16    0.000
1887 H_289092 40.053 59.358 -0.150 H 16 CKW::FUZI_16    0.000
1888 H_289121 39.966 60.286 3.922 H 16 CKW::FUZI_16    0.000
1889 H_289122 41.275 60.698 2.830 H 16 CKW::FUZI_16    0.000
1890 H.c 39.737 56.179 0.735 H 16 CKW::FUZI_16    0.000
1891 H_289181 40.380 58.281 5.319 H 16 CKW::FUZI_16    0.000
1892 H_289182 41.761 59.122 6.030 H 16 CKW::FUZI_16    0.000
1893 H_289183 41.050 57.728 6.862 H 16 CKW::FUZI_16    0.000
1894 H_289011 39.871 54.531 3.173 H 16 CKW::FUZI_16    0.000
1895 H_289012 40.128 54.116 1.506 H 16 CKW::FUZI_16    0.000
1896 H_289041 43.242 56.635 2.397 H 16 CKW::FUZI_16    0.000
1897 H_289042 42.724 56.006 0.820 H 16 CKW::FUZI_16    0.000
1898 H.e 44.956 53.734 3.507 H 16 CKW::FUZI_16    0.000
1899 H_288921 43.551 51.300 4.684 H 16 CKW::FUZI_16    0.000
1900 H_288922 45.229 51.835 4.965 H 16 CKW::FUZI_16    0.000
1901 H_288941 44.524 51.745 0.938 H 16 CKW::FUZI_16    0.000
1902 H_288942 43.095 50.961 1.677 H 16 CKW::FUZI_16    0.000
1903 H_288931 45.890 51.210 2.746 H 16 CKW::FUZI_16    0.000
1904 H_288932 44.694 49.934 3.073 H 16 CKW::FUZI_16    0.000
1905 C.b 40.484 79.829 0.817 C.3 17 CKW::FUZI_17    0.000
1906 C_28893 34.182 80.260 7.830 C.3 17 CKW::FUZI_17    0.000
1907 C_28894 34.452 81.028 6.525 C.3 17 CKW::FUZI_17    0.000
1908 C_28892 35.086 79.025 7.725 C.3 17 CKW::FUZI_17    0.000
1909 N 35.731 80.535 5.995 N.am 17 CKW::FUZI_17    0.000
1910 O 37.298 77.416 6.821 O.2 17 CKW::FUZI_17    0.000
1911 C.e 36.282 79.558 6.922 C.3 17 CKW::FUZI_17    0.000
1912 O 35.763 81.754 4.136 O.2 17 CKW::FUZI_17    0.000
1913 C_28904 38.592 80.948 3.971 C.3 17 CKW::FUZI_17    0.000
1914 C_28901 36.973 79.501 2.835 C.3 17 CKW::FUZI_17    0.000
1915 C.d 37.404 79.989 4.254 C.3 17 CKW::FUZI_17    0.000
1916 C_28918 41.062 76.700 4.758 C.3 17 CKW::FUZI_17    0.000
1917 C.c 37.770 80.376 1.855 C.3 17 CKW::FUZI_17    0.000
1918 O 41.167 80.877 2.874 O.2 17 CKW::FUZI_17    0.000
1919 O 36.985 79.404 -0.146 O.2 17 CKW::FUZI_17    0.000
1920 N 38.978 80.745 2.570 N.am 17 CKW::FUZI_17    0.000
1921 C_28912 41.280 78.543 1.131 C.3 17 CKW::FUZI_17    0.000
1922 C_28909 41.490 80.664 -0.031 C.3 17 CKW::FUZI_17    0.000
1923 O 38.886 76.817 -2.369 O.co2 17 CKW::FUZI_17    0.000
1924 O 42.909 80.773 -2.537 O.2 17 CKW::FUZI_17    0.000
1925 C_28900 37.164 78.503 6.291 C.2 17 CKW::FUZI_17    0.000
1926 C_28897 36.245 80.845 4.788 C.2 17 CKW::FUZI_17    0.000
1927 N.d 37.804 78.832 5.134 N.am 17 CKW::FUZI_17    0.000
1928 C.d2 38.859 77.936 4.573 C.3 17 CKW::FUZI_17    0.000
1929 C_28917 40.812 78.902 5.966 C.3 17 CKW::FUZI_17    0.000
1930 C_28916 40.075 77.631 5.494 C.3 17 CKW::FUZI_17    0.000
1931 C_28908 40.246 80.536 2.158 C.2 17 CKW::FUZI_17    0.000
1932 C_28905 37.962 79.716 0.509 C.2 17 CKW::FUZI_17    0.000
1933 N.b 39.227 79.493 0.058 N.am 17 CKW::FUZI_17    0.000
1934 C.b2 39.408 78.815 -1.256 C.3 17 CKW::FUZI_17    0.000
1935 OH 38.805 76.750 -0.246 O.co2 17 CKW::FUZI_17    0.000
1936 C_28922 39.009 77.348 -1.284 C.2 17 CKW::FUZI_17    0.000
1937 C_28929 44.312 80.299 4.397 C.2 17 CKW::FUZI_17    0.000
1938 C.a2 44.033 80.208 0.192 C.3 17 CKW::FUZI_17    0.000
1939 C_28931 44.062 81.396 2.373 C.2 17 CKW::FUZI_17    0.000
1940 C_28927 44.318 79.110 2.406 C.2 17 CKW::FUZI_17    0.000
1941 C_28926 44.126 80.236 1.711 C.2 17 CKW::FUZI_17    0.000
1942 C_28935 44.390 80.317 5.732 C.2 17 CKW::FUZI_17    0.000
1943 C_28930 44.152 81.429 3.703 C.2 17 CKW::FUZI_17    0.000
1944 C_28928 44.398 79.127 3.740 C.2 17 CKW::FUZI_17    0.000
1945 C_28932 44.561 77.993 4.430 C.2 17 CKW::FUZI_17    0.000
1946 C_28933 44.637 78.020 5.761 C.2 17 CKW::FUZI_17    0.000
1947 C_28934 44.551 79.181 6.411 C.2 17 CKW::FUZI_17    0.000
1948 C.a 42.676 79.721 -0.418 C.3 17 CKW::FUZI_17    0.000
1949 N 42.301 78.398 0.089 N.am 17 CKW::FUZI_17    0.000
1950 O 42.424 76.186 0.164 O.2 17 CKW::FUZI_17    0.000
1951 C_28938 43.269 77.202 -1.862 C.3 17 CKW::FUZI_17    0.000
1952 C_28936 42.903 79.719 -1.924 C.2 17 CKW::FUZI_17    0.000
1953 C_28939 42.650 77.212 -0.453 C.2 17 CKW::FUZI_17    0.000
1954 N.z 43.131 78.532 -2.559 N.am 17 CKW::FUZI_17    0.000
1955 C.z2 43.492 78.563 -4.002 C.3 17 CKW::FUZI_17    0.000
1956 C_28975 42.537 76.042 -2.632 C.3 17 CKW::FUZI_17    0.000
1957 C_28944 44.782 76.855 -1.667 C.3 17 CKW::FUZI_17    0.000
1958 C_28945 45.382 75.963 -2.779 C.3 17 CKW::FUZI_17    0.000
1959 NH 44.618 74.698 -2.979 N.2 17 CKW::FUZI_17    0.000
1960 C_28979 40.172 79.185 -5.591 C.2 17 CKW::FUZI_17    0.000
1961 C_28980 41.125 78.709 -4.782 C.2 17 CKW::FUZI_17    0.000
1962 C_28976 42.713 79.944 -5.900 C.2 17 CKW::FUZI_17    0.000
1963 C_28977 41.773 80.424 -6.714 C.2 17 CKW::FUZI_17    0.000
1964 C_28943 42.402 79.084 -4.925 C.2 17 CKW::FUZI_17    0.000
1965 C_28984 38.896 78.812 -5.441 C.2 17 CKW::FUZI_17    0.000
1966 C_28978 40.499 80.052 -6.567 C.2 17 CKW::FUZI_17    0.000
1967 C_28981 39.548 80.531 -7.376 C.2 17 CKW::FUZI_17    0.000
1968 C_28982 38.279 80.153 -7.218 C.2 17 CKW::FUZI_17    0.000
1969 C_28983 37.953 79.294 -6.252 C.2 17 CKW::FUZI_17    0.000
1970 C_28974 43.229 74.673 -2.446 C.3 17 CKW::FUZI_17    0.000
1971 H_289741 43.256 74.393 -1.390 H 17 CKW::FUZI_17    0.000
1972 H_289742 42.662 73.910 -2.987 H 17 CKW::FUZI_17    0.000
1973 H_28983 36.918 78.987 -6.124 H 17 CKW::FUZI_17    0.000
1974 H_28982 37.509 80.545 -7.878 H 17 CKW::FUZI_17    0.000
1975 H_28981 39.799 81.232 -8.169 H 17 CKW::FUZI_17    0.000
1976 H_28984 38.614 78.113 -4.659 H 17 CKW::FUZI_17    0.000
1977 H_28977 42.056 81.125 -7.498 H 17 CKW::FUZI_17    0.000
1978 H_28976 43.744 80.263 -6.035 H 17 CKW::FUZI_17    0.000
1979 H_28980 40.856 78.011 -3.993 H 17 CKW::FUZI_17    0.000
1980 H_289451 45.427 76.506 -3.724 H 17 CKW::FUZI_17    0.000
1981 H_289452 46.406 75.702 -2.501 H 17 CKW::FUZI_17    0.000
1982 H_289441 44.927 76.324 -0.722 H 17 CKW::FUZI_17    0.000
1983 H_289442 45.372 77.770 -1.587 H 17 CKW::FUZI_17    0.000
1984 H_289751 42.470 76.215 -3.704 H 17 CKW::FUZI_17    0.000
1985 H_289752 41.500 75.967 -2.300 H 17 CKW::FUZI_17    0.000
1986 H.z21 43.808 77.588 -4.363 H 17 CKW::FUZI_17    0.000
1987 H.z22 44.371 79.209 -4.092 H 17 CKW::FUZI_17    0.000
1988 H_28934 44.613 79.201 7.496 H 17 CKW::FUZI_17    0.000
1989 H_28933 44.767 77.095 6.317 H 17 CKW::FUZI_17    0.000
1990 H_28932 44.631 77.038 3.913 H 17 CKW::FUZI_17    0.000
1991 H_28930 44.086 82.386 4.217 H 17 CKW::FUZI_17    0.000
1992 H_28935 44.322 81.257 6.275 H 17 CKW::FUZI_17    0.000
1993 H_28927 44.395 78.162 1.876 H 17 CKW::FUZI_17    0.000
1994 H_28931 43.926 82.328 1.830 H 17 CKW::FUZI_17    0.000
1995 H.a21 44.257 81.204 -0.199 H 17 CKW::FUZI_17    0.000
1996 H.a22 44.834 79.566 -0.179 H 17 CKW::FUZI_17    0.000
1997 H.b21 40.435 78.864 -1.607 H 17 CKW::FUZI_17    0.000
1998 H.b22 38.790 79.327 -1.999 H 17 CKW::FUZI_17    0.000
1999 H_28916 39.732 77.097 6.381 H 17 CKW::FUZI_17    0.000
2000 H_289171 41.624 78.636 6.645 H 17 CKW::FUZI_17    0.000
2001 H_289172 40.135 79.569 6.504 H 17 CKW::FUZI_17    0.000
2002 H_289173 41.242 79.441 5.120 H 17 CKW::FUZI_17    0.000
2003 H.d21 39.254 78.355 3.646 H 17 CKW::FUZI_17    0.000
2004 H.d22 38.379 76.988 4.314 H 17 CKW::FUZI_17    0.000
2005 H_289091 41.858 81.535 0.514 H 17 CKW::FUZI_17    0.000
2006 H_289092 40.985 81.066 -0.913 H 17 CKW::FUZI_17    0.000
2007 H_289121 41.787 78.616 2.093 H 17 CKW::FUZI_17    0.000
2008 H_289122 40.622 77.674 1.167 H 17 CKW::FUZI_17    0.000
2009 H.c 37.215 81.299 1.666 H 17 CKW::FUZI_17    0.000
2010 H_289181 41.471 77.186 3.871 H 17 CKW::FUZI_17    0.000
2011 H_289182 40.561 75.780 4.446 H 17 CKW::FUZI_17    0.000
2012 H_289183 41.893 76.427 5.413 H 17 CKW::FUZI_17    0.000
2013 H_289011 35.898 79.597 2.659 H 17 CKW::FUZI_17    0.000
2014 H_289012 37.218 78.450 2.668 H 17 CKW::FUZI_17    0.000
2015 H_289041 38.299 81.994 4.092 H 17 CKW::FUZI_17    0.000
2016 H_289042 39.424 80.750 4.645 H 17 CKW::FUZI_17    0.000
2017 H.e 36.936 80.112 7.603 H 17 CKW::FUZI_17    0.000
2018 H_288921 35.379 78.641 8.705 H 17 CKW::FUZI_17    0.000
2019 H_288922 34.575 78.237 7.165 H 17 CKW::FUZI_17    0.000
2020 H_288941 33.664 80.815 5.798 H 17 CKW::FUZI_17    0.000
2021 H_288942 34.504 82.105 6.711 H 17 CKW::FUZI_17    0.000
2022 H_288931 33.129 79.992 7.942 H 17 CKW::FUZI_17    0.000
2023 H_288932 34.488 80.868 8.685 H 17 CKW::FUZI_17    0.000
2024 C.b 41.253 99.350 -0.448 C.3 18 CKW::FUZI_18    0.000
2025 C_28893 38.575 107.864 2.828 C.3 18 CKW::FUZI_18    0.000
2026 C_28894 39.581 106.767 3.216 C.3 18 CKW::FUZI_18    0.000
2027 C_28892 38.233 107.551 1.367 C.3 18 CKW::FUZI_18    0.000
2028 N 39.418 105.676 2.245 N.am 18 CKW::FUZI_18    0.000
2029 O 37.997 105.971 -1.028 O.2 18 CKW::FUZI_18    0.000
2030 C.e 38.351 106.020 1.318 C.3 18 CKW::FUZI_18    0.000
2031 O 40.985 104.323 3.059 O.2 18 CKW::FUZI_18    0.000
2032 C_28904 39.567 102.309 1.397 C.3 18 CKW::FUZI_18    0.000
2033 C_28901 41.516 103.406 0.406 C.3 18 CKW::FUZI_18    0.000
2034 C.d 40.067 103.694 0.917 C.3 18 CKW::FUZI_18    0.000
2035 C_28918 37.889 102.117 -3.182 C.3 18 CKW::FUZI_18    0.000
2036 C.c 41.812 101.955 0.831 C.3 18 CKW::FUZI_18    0.000
2037 O 38.988 99.858 0.221 O.2 18 CKW::FUZI_18    0.000
2038 O 43.914 101.837 -0.245 O.2 18 CKW::FUZI_18    0.000
2039 N 40.512 101.313 0.887 N.am 18 CKW::FUZI_18    0.000
2040 C_28912 40.693 98.925 -1.828 C.3 18 CKW::FUZI_18    0.000
2041 C_28909 41.323 97.997 0.307 C.3 18 CKW::FUZI_18    0.000
2042 O 44.803 98.492 0.550 O.co2 18 CKW::FUZI_18    0.000
2043 O 39.405 96.278 1.676 O.2 18 CKW::FUZI_18    0.000
2044 C_28900 38.495 105.422 -0.064 C.2 18 CKW::FUZI_18    0.000
2045 C_28897 40.194 104.576 2.168 C.2 18 CKW::FUZI_18    0.000
2046 N.d 39.182 104.249 -0.168 N.am 18 CKW::FUZI_18    0.000
2047 C.d2 39.139 103.446 -1.428 C.3 18 CKW::FUZI_18    0.000
2048 C_28917 36.782 102.478 -0.945 C.3 18 CKW::FUZI_18    0.000
2049 C_28916 37.734 103.091 -1.995 C.3 18 CKW::FUZI_18    0.000
2050 C_28908 40.159 100.180 0.245 C.2 18 CKW::FUZI_18    0.000
2051 C_28905 42.854 101.277 -0.033 C.2 18 CKW::FUZI_18    0.000
2052 N.b 42.578 100.046 -0.550 N.am 18 CKW::FUZI_18    0.000
2053 C.b2 43.623 99.317 -1.317 C.3 18 CKW::FUZI_18    0.000
2054 OH 45.952 99.381 -1.010 O.co2 18 CKW::FUZI_18    0.000
2055 C_28922 44.890 99.037 -0.533 C.2 18 CKW::FUZI_18    0.000
2056 C_28929 44.187 95.959 -3.468 C.2 18 CKW::FUZI_18    0.000
2057 C.a2 40.961 95.679 -0.770 C.3 18 CKW::FUZI_18    0.000
2058 C_28931 41.909 95.905 -3.059 C.2 18 CKW::FUZI_18    0.000
2059 C_28927 43.387 95.710 -1.306 C.2 18 CKW::FUZI_18    0.000
2060 C_28926 42.125 95.777 -1.746 C.2 18 CKW::FUZI_18    0.000
2061 C_28935 45.218 96.065 -4.314 C.2 18 CKW::FUZI_18    0.000
2062 C_28930 42.928 96.001 -3.913 C.2 18 CKW::FUZI_18    0.000
2063 C_28928 44.419 95.809 -2.151 C.2 18 CKW::FUZI_18    0.000
2064 C_28932 45.677 95.767 -1.701 C.2 18 CKW::FUZI_18    0.000
2065 C_28933 46.699 95.875 -2.551 C.2 18 CKW::FUZI_18    0.000
2066 C_28934 46.470 96.024 -3.855 C.2 18 CKW::FUZI_18    0.000
2067 C.a 40.297 97.042 -0.387 C.3 18 CKW::FUZI_18    0.000
2068 N 39.831 97.763 -1.579 N.am 18 CKW::FUZI_18    0.000
2069 O 38.449 98.042 -3.276 O.2 18 CKW::FUZI_18    0.000
2070 C_28938 37.459 97.083 -1.272 C.3 18 CKW::FUZI_18    0.000
2071 C_28936 39.154 96.729 0.573 C.2 18 CKW::FUZI_18    0.000
2072 C_28939 38.607 97.650 -2.134 C.2 18 CKW::FUZI_18    0.000
2073 N.z 37.869 96.981 0.184 N.am 18 CKW::FUZI_18    0.000
2074 C.z2 36.825 97.093 1.243 C.3 18 CKW::FUZI_18    0.000
2075 C_28975 37.174 95.656 -1.830 C.3 18 CKW::FUZI_18    0.000
2076 C_28944 36.206 98.000 -1.566 C.3 18 CKW::FUZI_18    0.000
2077 C_28945 34.795 97.368 -1.411 C.3 18 CKW::FUZI_18    0.000
2078 NH 34.745 96.007 -1.996 N.2 18 CKW::FUZI_18    0.000
2079 C_28979 35.865 100.582 2.169 C.2 18 CKW::FUZI_18    0.000
2080 C_28980 35.862 99.365 1.615 C.2 18 CKW::FUZI_18    0.000
2081 C_28976 37.715 98.783 2.841 C.2 18 CKW::FUZI_18    0.000
2082 C_28977 37.727 99.990 3.407 C.2 18 CKW::FUZI_18    0.000
2083 C_28943 36.796 98.458 1.924 C.2 18 CKW::FUZI_18    0.000
2084 C_28984 34.944 101.491 1.831 C.2 18 CKW::FUZI_18    0.000
2085 C_28978 36.812 100.901 3.070 C.2 18 CKW::FUZI_18    0.000
2086 C_28981 36.827 102.123 3.614 C.2 18 CKW::FUZI_18    0.000
2087 C_28982 35.909 103.025 3.265 C.2 18 CKW::FUZI_18    0.000
2088 C_28983 34.968 102.709 2.376 C.2 18 CKW::FUZI_18    0.000
2089 C_28974 35.787 95.112 -1.441 C.3 18 CKW::FUZI_18    0.000
2090 H_289741 35.657 94.114 -1.867 H 18 CKW::FUZI_18    0.000
2091 H_289742 35.687 95.042 -0.356 H 18 CKW::FUZI_18    0.000
2092 H_28983 34.220 103.445 2.093 H 18 CKW::FUZI_18    0.000
2093 H_28982 35.929 104.018 3.707 H 18 CKW::FUZI_18    0.000
2094 H_28981 37.590 102.393 4.342 H 18 CKW::FUZI_18    0.000
2095 H_28984 34.173 101.250 1.103 H 18 CKW::FUZI_18    0.000
2096 H_28977 38.498 100.226 4.138 H 18 CKW::FUZI_18    0.000
2097 H_28976 38.478 98.069 3.132 H 18 CKW::FUZI_18    0.000
2098 H_28980 35.093 99.116 0.890 H 18 CKW::FUZI_18    0.000
2099 H_289451 34.460 97.331 -0.376 H 18 CKW::FUZI_18    0.000
2100 H_289452 34.079 97.995 -1.948 H 18 CKW::FUZI_18    0.000
2101 H_289441 36.214 98.314 -2.610 H 18 CKW::FUZI_18    0.000
2102 H_289442 36.280 98.929 -1.002 H 18 CKW::FUZI_18    0.000
2103 H_289751 37.937 94.957 -1.484 H 18 CKW::FUZI_18    0.000
2104 H_289752 37.233 95.665 -2.922 H 18 CKW::FUZI_18    0.000
2105 H.z21 37.021 96.336 2.007 H 18 CKW::FUZI_18    0.000
2106 H.z22 35.848 96.838 0.860 H 18 CKW::FUZI_18    0.000
2107 H_28934 47.304 96.112 -4.547 H 18 CKW::FUZI_18    0.000
2108 H_28933 47.720 95.843 -2.179 H 18 CKW::FUZI_18    0.000
2109 H_28932 45.880 95.648 -0.639 H 18 CKW::FUZI_18    0.000
2110 H_28930 42.722 96.116 -4.975 H 18 CKW::FUZI_18    0.000
2111 H_28935 45.045 96.187 -5.381 H 18 CKW::FUZI_18    0.000
2112 H_28927 43.576 95.591 -0.241 H 18 CKW::FUZI_18    0.000
2113 H_28931 40.892 95.943 -3.442 H 18 CKW::FUZI_18    0.000
2114 H.a21 40.203 95.023 -1.202 H 18 CKW::FUZI_18    0.000
2115 H.a22 41.298 95.177 0.142 H 18 CKW::FUZI_18    0.000
2116 H.b21 43.894 99.911 -2.195 H 18 CKW::FUZI_18    0.000
2117 H.b22 43.267 98.347 -1.659 H 18 CKW::FUZI_18    0.000
2118 H_28916 37.266 103.998 -2.381 H 18 CKW::FUZI_18    0.000
2119 H_289171 36.658 103.145 -0.090 H 18 CKW::FUZI_18    0.000
2120 H_289172 37.156 101.517 -0.591 H 18 CKW::FUZI_18    0.000
2121 H_289173 35.795 102.311 -1.381 H 18 CKW::FUZI_18    0.000
2122 H.d21 39.669 102.504 -1.283 H 18 CKW::FUZI_18    0.000
2123 H.d22 39.686 104.005 -2.193 H 18 CKW::FUZI_18    0.000
2124 H_289091 41.110 98.142 1.369 H 18 CKW::FUZI_18    0.000
2125 H_289092 42.325 97.578 0.266 H 18 CKW::FUZI_18    0.000
2126 H_289121 40.125 99.746 -2.273 H 18 CKW::FUZI_18    0.000
2127 H_289122 41.468 98.626 -2.534 H 18 CKW::FUZI_18    0.000
2128 H.c 42.213 101.955 1.849 H 18 CKW::FUZI_18    0.000
2129 H_289181 36.918 101.908 -3.637 H 18 CKW::FUZI_18    0.000
2130 H_289182 38.324 101.170 -2.854 H 18 CKW::FUZI_18    0.000
2131 H_289183 38.537 102.547 -3.949 H 18 CKW::FUZI_18    0.000
2132 H_289011 42.258 104.093 0.821 H 18 CKW::FUZI_18    0.000
2133 H_289012 41.593 103.493 -0.679 H 18 CKW::FUZI_18    0.000
2134 H_289041 39.570 102.244 2.489 H 18 CKW::FUZI_18    0.000
2135 H_289042 38.552 102.120 1.050 H 18 CKW::FUZI_18    0.000
2136 H.e 37.433 105.588 1.728 H 18 CKW::FUZI_18    0.000
2137 H_288921 37.237 107.901 1.089 H 18 CKW::FUZI_18    0.000
2138 H_288922 38.975 108.009 0.706 H 18 CKW::FUZI_18    0.000
2139 H_288941 40.601 107.154 3.143 H 18 CKW::FUZI_18    0.000
2140 H_288942 39.393 106.408 4.232 H 18 CKW::FUZI_18    0.000
2141 H_288931 38.989 108.867 2.950 H 18 CKW::FUZI_18    0.000
2142 H_288932 37.677 107.773 3.444 H 18 CKW::FUZI_18    0.000
2143 C.b 59.474 0.332 1.818 C.3 19 CKW::FUZI_19    0.000
2144 C_28893 64.881 8.212 2.474 C.3 19 CKW::FUZI_19    0.000
2145 C_28894 63.594 7.676 3.124 C.3 19 CKW::FUZI_19    0.000
2146 C_28892 65.524 6.966 1.854 C.3 19 CKW::FUZI_19    0.000
2147 N 63.299 6.384 2.486 N.am 19 CKW::FUZI_19    0.000
2148 O 65.683 4.275 0.899 O.2 19 CKW::FUZI_19    0.000
2149 C.e 64.302 6.118 1.468 C.3 19 CKW::FUZI_19    0.000
2150 O 61.492 5.885 3.676 O.2 19 CKW::FUZI_19    0.000
2151 C_28904 60.992 3.873 1.601 C.3 19 CKW::FUZI_19    0.000
2152 C_28901 62.324 3.116 3.509 C.3 19 CKW::FUZI_19    0.000
2153 C.d 62.357 4.100 2.297 C.3 19 CKW::FUZI_19    0.000
2154 C_28918 62.346 2.493 -1.269 C.3 19 CKW::FUZI_19    0.000
2155 C.c 61.061 2.244 3.328 C.3 19 CKW::FUZI_19    0.000
2156 O 59.016 2.259 0.406 O.2 19 CKW::FUZI_19    0.000
2157 O 62.067 0.366 4.381 O.2 19 CKW::FUZI_19    0.000
2158 N 60.500 2.565 2.026 N.am 19 CKW::FUZI_19    0.000
2159 C_28912 58.098 0.201 2.490 C.3 19 CKW::FUZI_19    0.000
2160 C_28909 59.277 -0.546 0.543 C.3 19 CKW::FUZI_19    0.000
2161 O 61.617 -3.275 1.627 O.co2 19 CKW::FUZI_19    0.000
2162 O 58.138 0.023 -2.019 O.2 19 CKW::FUZI_19    0.000
2163 C_28900 64.574 4.651 1.226 C.2 19 CKW::FUZI_19    0.000
2164 C_28897 62.333 5.527 2.871 C.2 19 CKW::FUZI_19    0.000
2165 N.d 63.528 3.790 1.387 N.am 19 CKW::FUZI_19    0.000
2166 C.d2 63.671 2.359 0.962 C.3 19 CKW::FUZI_19    0.000
2167 C_28917 64.867 2.493 -1.345 C.3 19 CKW::FUZI_19    0.000
2168 C_28916 63.627 2.016 -0.559 C.3 19 CKW::FUZI_19    0.000
2169 C_28908 59.620 1.795 1.356 C.2 19 CKW::FUZI_19    0.000
2170 C_28905 61.275 0.760 3.545 C.2 19 CKW::FUZI_19    0.000
2171 N.b 60.565 -0.101 2.761 N.am 19 CKW::FUZI_19    0.000
2172 C.b2 60.720 -1.563 2.964 C.3 19 CKW::FUZI_19    0.000
2173 OH 62.822 -1.538 1.885 O.co2 19 CKW::FUZI_19    0.000
2174 C_28922 61.810 -2.175 2.104 C.2 19 CKW::FUZI_19    0.000
2175 C_28929 57.443 -4.473 3.522 C.2 19 CKW::FUZI_19    0.000
2176 C.a2 57.217 -2.035 0.091 C.3 19 CKW::FUZI_19    0.000
2177 C_28931 56.394 -2.806 2.307 C.2 19 CKW::FUZI_19    0.000
2178 C_28927 58.271 -3.825 1.456 C.2 19 CKW::FUZI_19    0.000
2179 C_28926 57.305 -2.909 1.334 C.2 19 CKW::FUZI_19    0.000
2180 C_28935 57.525 -5.247 4.610 C.2 19 CKW::FUZI_19    0.000
2181 C_28930 56.464 -3.573 3.394 C.2 19 CKW::FUZI_19    0.000
2182 C_28928 58.353 -4.603 2.540 C.2 19 CKW::FUZI_19    0.000
2183 C_28932 59.330 -5.509 2.661 C.2 19 CKW::FUZI_19    0.000
2184 C_28933 59.406 -6.276 3.749 C.2 19 CKW::FUZI_19    0.000
2185 C_28934 58.505 -6.145 4.723 C.2 19 CKW::FUZI_19    0.000
2186 C.a 57.739 -0.569 0.252 C.3 19 CKW::FUZI_19    0.000
2187 N 57.118 0.101 1.400 N.am 19 CKW::FUZI_19    0.000
2188 O 55.489 1.194 2.431 O.2 19 CKW::FUZI_19    0.000
2189 C_28938 55.307 1.107 0.023 C.3 19 CKW::FUZI_19    0.000
2190 C_28936 57.393 0.121 -1.061 C.2 19 CKW::FUZI_19    0.000
2191 C_28939 55.962 0.797 1.381 C.2 19 CKW::FUZI_19    0.000
2192 N.z 56.219 0.816 -1.145 N.am 19 CKW::FUZI_19    0.000
2193 C.z2 55.763 1.318 -2.472 C.3 19 CKW::FUZI_19    0.000
2194 C_28975 54.924 2.632 0.090 C.3 19 CKW::FUZI_19    0.000
2195 C_28944 54.020 0.218 -0.026 C.3 19 CKW::FUZI_19    0.000
2196 C_28945 52.808 0.874 -0.731 C.3 19 CKW::FUZI_19    0.000
2197 NH 52.476 2.221 -0.184 N.2 19 CKW::FUZI_19    0.000
2198 C_28979 56.549 -0.415 -5.671 C.2 19 CKW::FUZI_19    0.000
2199 C_28980 56.552 0.464 -4.663 C.2 19 CKW::FUZI_19    0.000
2200 C_28976 54.910 -0.736 -3.587 C.2 19 CKW::FUZI_19    0.000
2201 C_28977 54.896 -1.620 -4.585 C.2 19 CKW::FUZI_19    0.000
2202 C_28943 55.739 0.312 -3.612 C.2 19 CKW::FUZI_19    0.000
2203 C_28984 57.368 -0.261 -6.717 C.2 19 CKW::FUZI_19    0.000
2204 C_28978 55.712 -1.469 -5.631 C.2 19 CKW::FUZI_19    0.000
2205 C_28981 55.708 -2.350 -6.638 C.2 19 CKW::FUZI_19    0.000
2206 C_28982 56.528 -2.187 -7.677 C.2 19 CKW::FUZI_19    0.000
2207 C_28983 57.357 -1.144 -7.716 C.2 19 CKW::FUZI_19    0.000
2208 C_28974 53.511 2.865 0.669 C.3 19 CKW::FUZI_19    0.000
2209 H_289741 53.438 2.468 1.684 H 19 CKW::FUZI_19    0.000
2210 H_289742 53.312 3.939 0.706 H 19 CKW::FUZI_19    0.000
2211 H_28983 58.025 -1.013 -8.564 H 19 CKW::FUZI_19    0.000
2212 H_28982 56.520 -2.906 -8.493 H 19 CKW::FUZI_19    0.000
2213 H_28981 55.036 -3.206 -6.619 H 19 CKW::FUZI_19    0.000
2214 H_28984 58.050 0.586 -6.763 H 19 CKW::FUZI_19    0.000
2215 H_28977 54.211 -2.464 -4.537 H 19 CKW::FUZI_19    0.000
2216 H_28976 54.237 -0.880 -2.749 H 19 CKW::FUZI_19    0.000
2217 H_28980 57.230 1.314 -4.694 H 19 CKW::FUZI_19    0.000
2218 H_289451 52.986 0.959 -1.803 H 19 CKW::FUZI_19    0.000
2219 H_289452 51.938 0.227 -0.596 H 19 CKW::FUZI_19    0.000
2220 H_289441 53.691 -0.022 0.989 H 19 CKW::FUZI_19    0.000
2221 H_289442 54.241 -0.743 -0.492 H 19 CKW::FUZI_19    0.000
2222 H_289751 54.952 3.121 -0.882 H 19 CKW::FUZI_19    0.000
2223 H_289752 55.657 3.177 0.691 H 19 CKW::FUZI_19    0.000
2224 H.z21 56.422 2.149 -2.740 H 19 CKW::FUZI_19    0.000
2225 H.z22 54.760 1.733 -2.404 H 19 CKW::FUZI_19    0.000
2226 H_28934 58.568 -6.771 5.609 H 19 CKW::FUZI_19    0.000
2227 H_28933 60.204 -7.009 3.842 H 19 CKW::FUZI_19    0.000
2228 H_28932 60.073 -5.628 1.875 H 19 CKW::FUZI_19    0.000
2229 H_28930 55.714 -3.460 4.175 H 19 CKW::FUZI_19    0.000
2230 H_28935 56.795 -5.152 5.411 H 19 CKW::FUZI_19    0.000
2231 H_28927 59.007 -3.932 0.661 H 19 CKW::FUZI_19    0.000
2232 H_28931 55.585 -2.084 2.222 H 19 CKW::FUZI_19    0.000
2233 H.a21 57.757 -2.512 -0.731 H 19 CKW::FUZI_19    0.000
2234 H.a22 56.173 -2.007 -0.227 H 19 CKW::FUZI_19    0.000
2235 H.b21 59.782 -2.079 2.760 H 19 CKW::FUZI_19    0.000
2236 H.b22 60.979 -1.775 4.005 H 19 CKW::FUZI_19    0.000
2237 H_28916 63.630 0.925 -0.619 H 19 CKW::FUZI_19    0.000
2238 H_289171 64.868 2.059 -2.347 H 19 CKW::FUZI_19    0.000
2239 H_289172 65.786 2.181 -0.844 H 19 CKW::FUZI_19    0.000
2240 H_289173 64.872 3.580 -1.454 H 19 CKW::FUZI_19    0.000
2241 H.d21 62.888 1.756 1.419 H 19 CKW::FUZI_19    0.000
2242 H.d22 64.614 1.982 1.369 H 19 CKW::FUZI_19    0.000
2243 H_289091 59.629 -1.564 0.672 H 19 CKW::FUZI_19    0.000
2244 H_289092 59.869 -0.148 -0.284 H 19 CKW::FUZI_19    0.000
2245 H_289121 58.042 -0.706 3.097 H 19 CKW::FUZI_19    0.000
2246 H_289122 57.901 1.068 3.126 H 19 CKW::FUZI_19    0.000
2247 H.c 60.320 2.548 4.072 H 19 CKW::FUZI_19    0.000
2248 H_289181 62.284 3.583 -1.276 H 19 CKW::FUZI_19    0.000
2249 H_289182 61.462 2.083 -0.779 H 19 CKW::FUZI_19    0.000
2250 H_289183 62.336 2.149 -2.306 H 19 CKW::FUZI_19    0.000
2251 H_289011 62.264 3.631 4.470 H 19 CKW::FUZI_19    0.000
2252 H_289012 63.233 2.511 3.554 H 19 CKW::FUZI_19    0.000
2253 H_289041 60.256 4.616 1.920 H 19 CKW::FUZI_19    0.000
2254 H_289042 61.081 3.935 0.518 H 19 CKW::FUZI_19    0.000
2255 H.e 63.898 6.500 0.526 H 19 CKW::FUZI_19    0.000
2256 H_288921 66.152 7.208 0.993 H 19 CKW::FUZI_19    0.000
2257 H_288922 66.125 6.447 2.605 H 19 CKW::FUZI_19    0.000
2258 H_288941 63.757 7.512 4.193 H 19 CKW::FUZI_19    0.000
2259 H_288942 62.765 8.373 2.978 H 19 CKW::FUZI_19    0.000
2260 H_288931 65.538 8.699 3.199 H 19 CKW::FUZI_19    0.000
2261 H_288932 64.626 8.926 1.688 H 19 CKW::FUZI_19    0.000
2262 C.b 58.490 19.901 -1.710 C.3 20 CKW::FUZI_20    0.000
2263 C_28893 53.168 25.845 -5.291 C.3 20 CKW::FUZI_20    0.000
2264 C_28894 54.281 25.770 -4.225 C.3 20 CKW::FUZI_20    0.000
2265 C_28892 52.323 24.584 -5.056 C.3 20 CKW::FUZI_20    0.000
2266 N 53.912 24.690 -3.297 N.am 20 CKW::FUZI_20    0.000
2267 O 50.885 22.673 -3.226 O.2 20 CKW::FUZI_20    0.000
2268 C.e 52.519 24.352 -3.555 C.3 20 CKW::FUZI_20    0.000
2269 O 55.934 24.322 -2.449 O.2 20 CKW::FUZI_20    0.000
2270 C_28904 55.240 21.924 -1.165 C.3 20 CKW::FUZI_20    0.000
2271 C_28901 54.968 21.602 -3.533 C.3 20 CKW::FUZI_20    0.000
2272 C.d 54.395 22.451 -2.369 C.3 20 CKW::FUZI_20    0.000
2273 C_28918 52.004 18.837 -0.670 C.3 20 CKW::FUZI_20    0.000
2274 C.c 56.436 21.351 -3.152 C.3 20 CKW::FUZI_20    0.000
2275 O 57.449 20.907 0.240 O.2 20 CKW::FUZI_20    0.000
2276 O 56.713 19.772 -4.903 O.2 20 CKW::FUZI_20    0.000
2277 N 56.470 21.325 -1.701 N.am 20 CKW::FUZI_20    0.000
2278 C_28912 59.780 20.738 -1.797 C.3 20 CKW::FUZI_20    0.000
2279 C_28909 58.931 18.692 -0.820 C.3 20 CKW::FUZI_20    0.000
2280 O 59.295 18.304 -6.082 O.co2 20 CKW::FUZI_20    0.000
2281 O 60.571 16.334 -0.837 O.2 20 CKW::FUZI_20    0.000
2282 C_28900 52.037 23.013 -3.038 C.2 20 CKW::FUZI_20    0.000
2283 C_28897 54.816 23.897 -2.680 C.2 20 CKW::FUZI_20    0.000
2284 N.d 52.903 22.267 -2.297 N.am 20 CKW::FUZI_20    0.000
2285 C.d2 52.366 21.240 -1.360 C.3 20 CKW::FUZI_20    0.000
2286 C_28917 51.784 19.463 -3.108 C.3 20 CKW::FUZI_20    0.000
2287 C_28916 52.531 19.760 -1.788 C.3 20 CKW::FUZI_20    0.000
2288 C_28908 57.443 20.750 -0.966 C.2 20 CKW::FUZI_20    0.000
2289 C_28905 57.073 20.143 -3.801 C.2 20 CKW::FUZI_20    0.000
2290 N.b 58.051 19.499 -3.100 N.am 20 CKW::FUZI_20    0.000
2291 C.b2 58.835 18.430 -3.779 C.3 20 CKW::FUZI_20    0.000
2292 OH 60.299 19.831 -4.986 O.co2 20 CKW::FUZI_20    0.000
2293 C_28922 59.538 18.886 -5.044 C.2 20 CKW::FUZI_20    0.000
2294 C_28929 60.230 22.654 2.478 C.2 20 CKW::FUZI_20    0.000
2295 C.a2 60.992 18.900 0.724 C.3 20 CKW::FUZI_20    0.000
2296 C_28931 61.515 21.298 1.113 C.2 20 CKW::FUZI_20    0.000
2297 C_28927 59.677 20.421 2.183 C.2 20 CKW::FUZI_20    0.000
2298 C_28926 60.710 20.257 1.351 C.2 20 CKW::FUZI_20    0.000
2299 C_28935 59.976 23.843 3.035 C.2 20 CKW::FUZI_20    0.000
2300 C_28930 61.276 22.487 1.665 C.2 20 CKW::FUZI_20    0.000
2301 C_28928 59.424 21.609 2.742 C.2 20 CKW::FUZI_20    0.000
2302 C_28932 58.377 21.771 3.559 C.2 20 CKW::FUZI_20    0.000
2303 C_28933 58.131 22.961 4.108 C.2 20 CKW::FUZI_20    0.000
2304 C_28934 58.929 23.996 3.846 C.2 20 CKW::FUZI_20    0.000
2305 C.a 60.492 18.706 -0.746 C.3 20 CKW::FUZI_20    0.000
2306 N 60.905 19.814 -1.609 N.am 20 CKW::FUZI_20    0.000
2307 O 62.382 20.969 -2.783 O.2 20 CKW::FUZI_20    0.000
2308 C_28938 62.944 18.640 -2.405 C.3 20 CKW::FUZI_20    0.000
2309 C_28936 61.091 17.378 -1.188 C.2 20 CKW::FUZI_20    0.000
2310 C_28939 62.071 19.904 -2.282 C.2 20 CKW::FUZI_20    0.000
2311 N.z 62.227 17.388 -1.949 N.am 20 CKW::FUZI_20    0.000
2312 C.z2 62.863 16.081 -2.299 C.3 20 CKW::FUZI_20    0.000
2313 C_28975 64.198 18.903 -1.510 C.3 20 CKW::FUZI_20    0.000
2314 C_28944 63.378 18.541 -3.916 C.3 20 CKW::FUZI_20    0.000
2315 C_28945 64.871 18.178 -4.097 C.3 20 CKW::FUZI_20    0.000
2316 NH 65.747 19.208 -3.475 N.2 20 CKW::FUZI_20    0.000
2317 C_28979 64.697 15.114 0.809 C.2 20 CKW::FUZI_20    0.000
2318 C_28980 63.761 15.592 -0.017 C.2 20 CKW::FUZI_20    0.000
2319 C_28976 65.027 14.975 -1.836 C.2 20 CKW::FUZI_20    0.000
2320 C_28977 65.968 14.493 -1.024 C.2 20 CKW::FUZI_20    0.000
2321 C_28943 63.915 15.532 -1.346 C.2 20 CKW::FUZI_20    0.000
2322 C_28984 64.537 15.183 2.135 C.2 20 CKW::FUZI_20    0.000
2323 C_28978 65.812 14.559 0.301 C.2 20 CKW::FUZI_20    0.000
2324 C_28981 66.750 14.082 1.127 C.2 20 CKW::FUZI_20    0.000
2325 C_28982 66.582 14.155 2.448 C.2 20 CKW::FUZI_20    0.000
2326 C_28983 65.477 14.705 2.951 C.2 20 CKW::FUZI_20    0.000
2327 C_28974 65.261 19.795 -2.194 C.3 20 CKW::FUZI_20    0.000
2328 H_289741 64.854 20.789 -2.390 H 20 CKW::FUZI_20    0.000
2329 H_289742 66.114 19.907 -1.520 H 20 CKW::FUZI_20    0.000
2330 H_28983 65.342 14.764 4.029 H 20 CKW::FUZI_20    0.000
2331 H_28982 67.348 13.765 3.115 H 20 CKW::FUZI_20    0.000
2332 H_28981 67.657 13.630 0.730 H 20 CKW::FUZI_20    0.000
2333 H_28984 63.641 15.630 2.561 H 20 CKW::FUZI_20    0.000
2334 H_28977 66.863 14.047 -1.452 H 20 CKW::FUZI_20    0.000
2335 H_28976 65.175 14.910 -2.911 H 20 CKW::FUZI_20    0.000
2336 H_28980 62.865 16.040 0.403 H 20 CKW::FUZI_20    0.000
2337 H_289451 65.094 17.208 -3.649 H 20 CKW::FUZI_20    0.000
2338 H_289452 65.099 18.123 -5.165 H 20 CKW::FUZI_20    0.000
2339 H_289441 63.233 19.484 -4.446 H 20 CKW::FUZI_20    0.000
2340 H_289442 62.746 17.831 -4.454 H 20 CKW::FUZI_20    0.000
2341 H_289751 64.694 17.970 -1.249 H 20 CKW::FUZI_20    0.000
2342 H_289752 63.899 19.360 -0.565 H 20 CKW::FUZI_20    0.000
2343 H.z21 63.287 16.124 -3.300 H 20 CKW::FUZI_20    0.000
2344 H.z22 62.077 15.326 -2.382 H 20 CKW::FUZI_20    0.000
2345 H_28934 58.727 24.965 4.295 H 20 CKW::FUZI_20    0.000
2346 H_28933 57.277 23.088 4.770 H 20 CKW::FUZI_20    0.000
2347 H_28932 57.716 20.936 3.781 H 20 CKW::FUZI_20    0.000
2348 H_28930 61.943 23.318 1.446 H 20 CKW::FUZI_20    0.000
2349 H_28935 60.620 24.696 2.830 H 20 CKW::FUZI_20    0.000
2350 H_28927 59.025 19.577 2.399 H 20 CKW::FUZI_20    0.000
2351 H_28931 62.373 21.183 0.455 H 20 CKW::FUZI_20    0.000
2352 H.a21 62.072 18.734 0.755 H 20 CKW::FUZI_20    0.000
2353 H.a22 60.565 18.112 1.351 H 20 CKW::FUZI_20    0.000
2354 H.b21 58.155 17.617 -4.049 H 20 CKW::FUZI_20    0.000
2355 H.b22 59.617 18.017 -3.150 H 20 CKW::FUZI_20    0.000
2356 H_28916 53.590 19.533 -1.920 H 20 CKW::FUZI_20    0.000
2357 H_289171 51.911 18.415 -3.392 H 20 CKW::FUZI_20    0.000
2358 H_289172 52.167 20.078 -3.925 H 20 CKW::FUZI_20    0.000
2359 H_289173 50.715 19.662 -3.002 H 20 CKW::FUZI_20    0.000
2360 H.d21 51.297 21.420 -1.219 H 20 CKW::FUZI_20    0.000
2361 H.d22 52.800 21.393 -0.371 H 20 CKW::FUZI_20    0.000
2362 H_289091 58.539 17.758 -1.230 H 20 CKW::FUZI_20    0.000
2363 H_289092 58.512 18.740 0.185 H 20 CKW::FUZI_20    0.000
2364 H_289121 59.844 21.249 -2.761 H 20 CKW::FUZI_20    0.000
2365 H_289122 59.811 21.487 -1.002 H 20 CKW::FUZI_20    0.000
2366 H.c 57.040 22.205 -3.471 H 20 CKW::FUZI_20    0.000
2367 H_289181 52.138 17.788 -0.943 H 20 CKW::FUZI_20    0.000
2368 H_289182 50.941 19.013 -0.487 H 20 CKW::FUZI_20    0.000
2369 H_289183 52.548 19.016 0.261 H 20 CKW::FUZI_20    0.000
2370 H_289011 54.883 22.106 -4.500 H 20 CKW::FUZI_20    0.000
2371 H_289012 54.452 20.647 -3.614 H 20 CKW::FUZI_20    0.000
2372 H_289041 55.479 22.731 -0.467 H 20 CKW::FUZI_20    0.000
2373 H_289042 54.747 21.125 -0.615 H 20 CKW::FUZI_20    0.000
2374 H.e 51.919 25.091 -3.015 H 20 CKW::FUZI_20    0.000
2375 H_288921 51.274 24.732 -5.323 H 20 CKW::FUZI_20    0.000
2376 H_288922 52.728 23.743 -5.625 H 20 CKW::FUZI_20    0.000
2377 H_288941 55.235 25.531 -4.703 H 20 CKW::FUZI_20    0.000
2378 H_288942 54.366 26.717 -3.685 H 20 CKW::FUZI_20    0.000
2379 H_288931 53.574 25.879 -6.304 H 20 CKW::FUZI_20    0.000
2380 H_288932 52.559 26.737 -5.123 H 20 CKW::FUZI_20    0.000
2381 C.b 59.354 38.913 -1.935 C.3 21 CKW::FUZI_21    0.000
2382 C_28893 60.012 29.620 -3.505 C.3 21 CKW::FUZI_21    0.000
2383 C_28894 59.450 30.846 -4.244 C.3 21 CKW::FUZI_21    0.000
2384 C_28892 61.243 30.165 -2.772 C.3 21 CKW::FUZI_21    0.000
2385 N 59.990 32.034 -3.569 N.am 21 CKW::FUZI_21    0.000
2386 O 63.015 32.137 -1.680 O.2 21 CKW::FUZI_21    0.000
2387 C.e 60.842 31.618 -2.467 C.3 21 CKW::FUZI_21    0.000
2388 O 58.895 33.561 -4.745 O.2 21 CKW::FUZI_21    0.000
2389 C_28904 59.677 35.067 -2.159 C.3 21 CKW::FUZI_21    0.000
2390 C_28901 60.833 35.581 -4.223 C.3 21 CKW::FUZI_21    0.000
2391 C.d 60.592 34.405 -3.222 C.3 21 CKW::FUZI_21    0.000
2392 C_28918 62.929 34.609 0.305 C.3 21 CKW::FUZI_21    0.000
2393 C.c 60.680 36.864 -3.388 C.3 21 CKW::FUZI_21    0.000
2394 O 58.424 37.074 -0.625 O.2 21 CKW::FUZI_21    0.000
2395 O 60.464 38.216 -5.336 O.2 21 CKW::FUZI_21    0.000
2396 N 59.781 36.525 -2.297 N.am 21 CKW::FUZI_21    0.000
2397 C_28912 60.653 39.397 -1.236 C.3 21 CKW::FUZI_21    0.000
2398 C_28909 58.262 39.820 -1.262 C.3 21 CKW::FUZI_21    0.000
2399 O 60.923 41.608 -3.750 O.co2 21 CKW::FUZI_21    0.000
2400 O 57.097 41.971 0.257 O.2 21 CKW::FUZI_21    0.000
2401 C_28900 61.997 32.557 -2.199 C.2 21 CKW::FUZI_21    0.000
2402 C_28897 59.751 33.315 -3.915 C.2 21 CKW::FUZI_21    0.000
2403 N.d 61.849 33.865 -2.565 N.am 21 CKW::FUZI_21    0.000
2404 C.d2 62.953 34.826 -2.261 C.3 21 CKW::FUZI_21    0.000
2405 C_28917 63.971 36.627 -0.803 C.3 21 CKW::FUZI_21    0.000
2406 C_28916 62.851 35.571 -0.900 C.3 21 CKW::FUZI_21    0.000
2407 C_28908 59.140 37.440 -1.539 C.2 21 CKW::FUZI_21    0.000
2408 C_28905 60.227 38.095 -4.149 C.2 21 CKW::FUZI_21    0.000
2409 N.b 59.545 39.038 -3.431 N.am 21 CKW::FUZI_21    0.000
2410 C.b2 59.032 40.256 -4.114 C.3 21 CKW::FUZI_21    0.000
2411 OH 59.020 42.469 -3.316 O.co2 21 CKW::FUZI_21    0.000
2412 C_28922 59.711 41.543 -3.690 C.2 21 CKW::FUZI_21    0.000
2413 C_28929 60.141 41.293 4.837 C.2 21 CKW::FUZI_21    0.000
2414 C.a2 58.749 39.630 1.229 C.3 21 CKW::FUZI_21    0.000
2415 C_28931 60.553 40.203 2.837 C.2 21 CKW::FUZI_21    0.000
2416 C_28927 58.402 40.822 3.376 C.2 21 CKW::FUZI_21    0.000
2417 C_28926 59.256 40.256 2.517 C.2 21 CKW::FUZI_21    0.000
2418 C_28935 60.571 41.812 5.992 C.2 21 CKW::FUZI_21    0.000
2419 C_28930 60.995 40.723 3.982 C.2 21 CKW::FUZI_21    0.000
2420 C_28928 58.831 41.336 4.534 C.2 21 CKW::FUZI_21    0.000
2421 C_28932 57.970 41.883 5.398 C.2 21 CKW::FUZI_21    0.000
2422 C_28933 58.406 42.397 6.548 C.2 21 CKW::FUZI_21    0.000
2423 C_28934 59.706 42.364 6.844 C.2 21 CKW::FUZI_21    0.000
2424 C.a 58.932 40.514 -0.045 C.3 21 CKW::FUZI_21    0.000
2425 N 60.333 40.579 -0.428 N.am 21 CKW::FUZI_21    0.000
2426 O 62.373 41.430 -0.407 O.2 21 CKW::FUZI_21    0.000
2427 C_28938 60.620 42.959 0.258 C.3 21 CKW::FUZI_21    0.000
2428 C_28936 58.309 41.876 0.217 C.2 21 CKW::FUZI_21    0.000
2429 C_28939 61.186 41.600 -0.200 C.2 21 CKW::FUZI_21    0.000
2430 N.z 59.117 42.962 0.408 N.am 21 CKW::FUZI_21    0.000
2431 C.z2 58.501 44.277 0.763 C.3 21 CKW::FUZI_21    0.000
2432 C_28975 61.072 43.975 -0.854 C.3 21 CKW::FUZI_21    0.000
2433 C_28944 61.310 43.298 1.621 C.3 21 CKW::FUZI_21    0.000
2434 C_28945 61.887 44.730 1.688 C.3 21 CKW::FUZI_21    0.000
2435 NH 62.899 44.945 0.622 N.2 21 CKW::FUZI_21    0.000
2436 C_28979 55.811 44.361 3.348 C.2 21 CKW::FUZI_21    0.000
2437 C_28980 56.458 44.210 2.188 C.2 21 CKW::FUZI_21    0.000
2438 C_28976 58.436 44.811 3.191 C.2 21 CKW::FUZI_21    0.000
2439 C_28977 57.804 44.975 4.352 C.2 21 CKW::FUZI_21    0.000
2440 C_28943 57.776 44.419 2.095 C.2 21 CKW::FUZI_21    0.000
2441 C_28984 54.496 44.135 3.434 C.2 21 CKW::FUZI_21    0.000
2442 C_28978 56.491 44.748 4.443 C.2 21 CKW::FUZI_21    0.000
2443 C_28981 55.847 44.901 5.605 C.2 21 CKW::FUZI_21    0.000
2444 C_28982 54.536 44.671 5.681 C.2 21 CKW::FUZI_21    0.000
2445 C_28983 53.861 44.289 4.597 C.2 21 CKW::FUZI_21    0.000
2446 C_28974 62.545 44.442 -0.735 C.3 21 CKW::FUZI_21    0.000
2447 H_289741 63.225 43.627 -0.990 H 21 CKW::FUZI_21    0.000
2448 H_289742 62.716 45.246 -1.455 H 21 CKW::FUZI_21    0.000
2449 H_28983 52.792 44.102 4.661 H 21 CKW::FUZI_21    0.000
2450 H_28982 54.017 44.796 6.628 H 21 CKW::FUZI_21    0.000
2451 H_28981 56.386 45.213 6.497 H 21 CKW::FUZI_21    0.000
2452 H_28984 53.931 43.823 2.558 H 21 CKW::FUZI_21    0.000
2453 H_28977 58.370 45.294 5.225 H 21 CKW::FUZI_21    0.000
2454 H_28976 59.500 45.014 3.146 H 21 CKW::FUZI_21    0.000
2455 H_28980 55.898 43.920 1.302 H 21 CKW::FUZI_21    0.000
2456 H_289451 61.099 45.478 1.585 H 21 CKW::FUZI_21    0.000
2457 H_289452 62.368 44.875 2.659 H 21 CKW::FUZI_21    0.000
2458 H_289441 62.137 42.612 1.821 H 21 CKW::FUZI_21    0.000
2459 H_289442 60.610 43.148 2.444 H 21 CKW::FUZI_21    0.000
2460 H_289751 60.463 44.878 -0.861 H 21 CKW::FUZI_21    0.000
2461 H_289752 60.927 43.533 -1.840 H 21 CKW::FUZI_21    0.000
2462 H.z21 57.800 44.525 -0.038 H 21 CKW::FUZI_21    0.000
2463 H.z22 59.252 45.062 0.748 H 21 CKW::FUZI_21    0.000
2464 H_28934 60.060 42.784 7.782 H 21 CKW::FUZI_21    0.000
2465 H_28933 57.702 42.844 7.246 H 21 CKW::FUZI_21    0.000
2466 H_28932 56.907 41.917 5.169 H 21 CKW::FUZI_21    0.000
2467 H_28930 62.056 40.672 4.214 H 21 CKW::FUZI_21    0.000
2468 H_28935 61.628 41.787 6.249 H 21 CKW::FUZI_21    0.000
2469 H_28927 57.342 40.856 3.132 H 21 CKW::FUZI_21    0.000
2470 H_28931 61.262 39.731 2.161 H 21 CKW::FUZI_21    0.000
2471 H.a21 59.265 38.677 1.100 H 21 CKW::FUZI_21    0.000
2472 H.a22 57.690 39.383 1.345 H 21 CKW::FUZI_21    0.000
2473 H.b21 57.955 40.348 -3.959 H 21 CKW::FUZI_21    0.000
2474 H.b22 59.182 40.187 -5.193 H 21 CKW::FUZI_21    0.000
2475 H_28916 61.905 36.103 -0.835 H 21 CKW::FUZI_21    0.000
2476 H_289171 64.956 36.156 -0.846 H 21 CKW::FUZI_21    0.000
2477 H_289172 63.895 37.183 0.134 H 21 CKW::FUZI_21    0.000
2478 H_289173 63.895 37.342 -1.626 H 21 CKW::FUZI_21    0.000
2479 H.d21 63.052 35.562 -3.056 H 21 CKW::FUZI_21    0.000
2480 H.d22 63.902 34.284 -2.274 H 21 CKW::FUZI_21    0.000
2481 H_289091 57.366 39.265 -0.975 H 21 CKW::FUZI_21    0.000
2482 H_289092 57.896 40.601 -1.919 H 21 CKW::FUZI_21    0.000
2483 H_289121 61.052 38.624 -0.573 H 21 CKW::FUZI_21    0.000
2484 H_289122 61.421 39.646 -1.974 H 21 CKW::FUZI_21    0.000
2485 H.c 61.640 37.137 -2.947 H 21 CKW::FUZI_21    0.000
2486 H_289181 62.084 33.917 0.306 H 21 CKW::FUZI_21    0.000
2487 H_289182 62.898 35.168 1.243 H 21 CKW::FUZI_21    0.000
2488 H_289183 63.855 34.030 0.283 H 21 CKW::FUZI_21    0.000
2489 H_289011 60.068 35.610 -5.001 H 21 CKW::FUZI_21    0.000
2490 H_289012 61.793 35.520 -4.738 H 21 CKW::FUZI_21    0.000
2491 H_289041 58.632 34.789 -2.323 H 21 CKW::FUZI_21    0.000
2492 H_289042 59.964 34.763 -1.149 H 21 CKW::FUZI_21    0.000
2493 H.e 60.224 31.633 -1.564 H 21 CKW::FUZI_21    0.000
2494 H_288921 61.472 29.598 -1.868 H 21 CKW::FUZI_21    0.000
2495 H_288922 62.107 30.143 -3.441 H 21 CKW::FUZI_21    0.000
2496 H_288941 59.792 30.845 -5.282 H 21 CKW::FUZI_21    0.000
2497 H_288942 58.356 30.850 -4.214 H 21 CKW::FUZI_21    0.000
2498 H_288931 60.263 28.805 -4.188 H 21 CKW::FUZI_21    0.000
2499 H_288932 59.279 29.262 -2.778 H 21 CKW::FUZI_21    0.000
2500 C.b 57.830 60.226 0.428 C.3 22 CKW::FUZI_22    0.000
2501 C_28893 57.039 66.499 -6.478 C.3 22 CKW::FUZI_22    0.000
2502 C_28894 56.419 65.763 -5.278 C.3 22 CKW::FUZI_22    0.000
2503 C_28892 58.516 66.086 -6.439 C.3 22 CKW::FUZI_22    0.000
2504 N 57.339 64.673 -4.922 N.am 22 CKW::FUZI_22    0.000
2505 O 60.809 64.515 -5.729 O.2 22 CKW::FUZI_22    0.000
2506 C.e 58.443 64.662 -5.867 C.3 22 CKW::FUZI_22    0.000
2507 O 56.251 63.960 -3.119 O.2 22 CKW::FUZI_22    0.000
2508 C_28904 57.956 61.637 -3.150 C.3 22 CKW::FUZI_22    0.000
2509 C_28901 58.923 63.581 -1.999 C.3 22 CKW::FUZI_22    0.000
2510 C.d 58.480 63.075 -3.408 C.3 22 CKW::FUZI_22    0.000
2511 C_28918 60.394 60.151 -5.260 C.3 22 CKW::FUZI_22    0.000
2512 C.c 58.922 62.355 -1.069 C.3 22 CKW::FUZI_22    0.000
2513 O 56.973 59.404 -1.703 O.2 22 CKW::FUZI_22    0.000
2514 O 58.610 63.719 0.881 O.2 22 CKW::FUZI_22    0.000
2515 N 58.107 61.332 -1.726 N.am 22 CKW::FUZI_22    0.000
2516 C_28912 59.273 59.682 0.623 C.3 22 CKW::FUZI_22    0.000
2517 C_28909 56.999 59.123 1.169 C.3 22 CKW::FUZI_22    0.000
2518 O 54.390 61.390 0.957 O.co2 22 CKW::FUZI_22    0.000
2519 O 56.310 56.683 2.476 O.2 22 CKW::FUZI_22    0.000
2520 C_28900 59.739 64.106 -5.321 C.2 22 CKW::FUZI_22    0.000
2521 C_28897 57.259 63.924 -3.803 C.2 22 CKW::FUZI_22    0.000
2522 N.d 59.640 63.131 -4.372 N.am 22 CKW::FUZI_22    0.000
2523 C.d2 60.853 62.358 -3.962 C.3 22 CKW::FUZI_22    0.000
2524 C_28917 61.992 61.837 -6.246 C.3 22 CKW::FUZI_22    0.000
2525 C_28916 61.406 61.268 -4.936 C.3 22 CKW::FUZI_22    0.000
2526 C_28908 57.588 60.255 -1.089 C.2 22 CKW::FUZI_22    0.000
2527 C_28905 58.450 62.635 0.351 C.2 22 CKW::FUZI_22    0.000
2528 N.b 57.748 61.634 0.951 N.am 22 CKW::FUZI_22    0.000
2529 C.b2 56.532 62.014 1.707 C.3 22 CKW::FUZI_22    0.000
2530 OH 55.332 63.012 -0.056 O.co2 22 CKW::FUZI_22    0.000
2531 C_28922 55.319 62.157 0.808 C.2 22 CKW::FUZI_22    0.000
2532 C_28929 60.441 62.279 4.365 C.2 22 CKW::FUZI_22    0.000
2533 C.a2 57.995 58.924 3.569 C.3 22 CKW::FUZI_22    0.000
2534 C_28931 58.351 61.296 4.238 C.2 22 CKW::FUZI_22    0.000
2535 C_28927 60.221 60.049 3.774 C.2 22 CKW::FUZI_22    0.000
2536 C_28926 58.887 60.133 3.852 C.2 22 CKW::FUZI_22    0.000
2537 C_28935 61.219 63.341 4.602 C.2 22 CKW::FUZI_22    0.000
2538 C_28930 59.114 62.361 4.483 C.2 22 CKW::FUZI_22    0.000
2539 C_28928 61.001 61.108 4.013 C.2 22 CKW::FUZI_22    0.000
2540 C_28932 62.331 61.016 3.905 C.2 22 CKW::FUZI_22    0.000
2541 C_28933 63.099 62.080 4.142 C.2 22 CKW::FUZI_22    0.000
2542 C_28934 62.544 63.241 4.489 C.2 22 CKW::FUZI_22    0.000
2543 C.a 57.962 58.343 2.106 C.3 22 CKW::FUZI_22    0.000
2544 N 59.235 58.436 1.400 N.am 22 CKW::FUZI_22    0.000
2545 O 61.235 57.736 0.773 O.2 22 CKW::FUZI_22    0.000
2546 C_28938 59.879 56.101 1.959 C.3 22 CKW::FUZI_22    0.000
2547 C_28936 57.483 56.902 2.228 C.2 22 CKW::FUZI_22    0.000
2548 C_28939 60.191 57.480 1.341 C.2 22 CKW::FUZI_22    0.000
2549 N.z 58.382 55.887 2.049 N.am 22 CKW::FUZI_22    0.000
2550 C.z2 57.882 54.480 2.026 C.3 22 CKW::FUZI_22    0.000
2551 C_28975 60.485 56.071 3.398 C.3 22 CKW::FUZI_22    0.000
2552 C_28944 60.623 54.986 1.130 C.3 22 CKW::FUZI_22    0.000
2553 C_28945 62.169 54.978 1.248 C.3 22 CKW::FUZI_22    0.000
2554 NH 62.581 54.977 2.673 N.2 22 CKW::FUZI_22    0.000
2555 C_28979 57.839 53.430 5.597 C.2 22 CKW::FUZI_22    0.000
2556 C_28980 57.644 54.126 4.472 C.2 22 CKW::FUZI_22    0.000
2557 C_28976 58.744 52.507 3.260 C.2 22 CKW::FUZI_22    0.000
2558 C_28977 58.943 51.803 4.374 C.2 22 CKW::FUZI_22    0.000
2559 C_28943 58.099 53.677 3.296 C.2 22 CKW::FUZI_22    0.000
2560 C_28984 57.389 53.888 6.770 C.2 22 CKW::FUZI_22    0.000
2561 C_28978 58.496 52.256 5.548 C.2 22 CKW::FUZI_22    0.000
2562 C_28981 58.691 51.560 6.673 C.2 22 CKW::FUZI_22    0.000
2563 C_28982 58.239 52.024 7.838 C.2 22 CKW::FUZI_22    0.000
2564 C_28983 57.589 53.187 7.887 C.2 22 CKW::FUZI_22    0.000
2565 C_28974 62.027 56.130 3.422 C.3 22 CKW::FUZI_22    0.000
2566 H_289741 62.387 57.065 2.986 H 22 CKW::FUZI_22    0.000
2567 H_289742 62.374 56.076 4.457 H 22 CKW::FUZI_22    0.000
2568 H_28983 57.221 53.564 8.838 H 22 CKW::FUZI_22    0.000
2569 H_28982 58.401 51.454 8.750 H 22 CKW::FUZI_22    0.000
2570 H_28981 59.220 50.609 6.648 H 22 CKW::FUZI_22    0.000
2571 H_28984 56.857 54.835 6.826 H 22 CKW::FUZI_22    0.000
2572 H_28977 59.474 50.855 4.316 H 22 CKW::FUZI_22    0.000
2573 H_28976 59.116 52.119 2.315 H 22 CKW::FUZI_22    0.000
2574 H_28980 57.114 55.075 4.514 H 22 CKW::FUZI_22    0.000
2575 H_289451 62.553 54.070 0.777 H 22 CKW::FUZI_22    0.000
2576 H_289452 62.622 55.829 0.737 H 22 CKW::FUZI_22    0.000
2577 H_289441 60.336 55.051 0.077 H 22 CKW::FUZI_22    0.000
2578 H_289442 60.334 53.996 1.478 H 22 CKW::FUZI_22    0.000
2579 H_289751 60.189 55.156 3.910 H 22 CKW::FUZI_22    0.000
2580 H_289752 60.097 56.895 3.993 H 22 CKW::FUZI_22    0.000
2581 H.z21 58.294 53.956 1.163 H 22 CKW::FUZI_22    0.000
2582 H.z22 56.807 54.485 1.832 H 22 CKW::FUZI_22    0.000
2583 H_28934 63.172 64.108 4.682 H 22 CKW::FUZI_22    0.000
2584 H_28933 64.180 62.000 4.051 H 22 CKW::FUZI_22    0.000
2585 H_28932 62.797 60.075 3.621 H 22 CKW::FUZI_22    0.000
2586 H_28930 58.643 63.295 4.783 H 22 CKW::FUZI_22    0.000
2587 H_28935 60.779 64.294 4.889 H 22 CKW::FUZI_22    0.000
2588 H_28927 60.686 59.106 3.503 H 22 CKW::FUZI_22    0.000
2589 H_28931 57.276 61.387 4.361 H 22 CKW::FUZI_22    0.000
2590 H.a21 58.312 58.135 4.251 H 22 CKW::FUZI_22    0.000
2591 H.a22 56.969 59.145 3.874 H 22 CKW::FUZI_22    0.000
2592 H.b21 56.680 62.982 2.194 H 22 CKW::FUZI_22    0.000
2593 H.b22 56.298 61.297 2.490 H 22 CKW::FUZI_22    0.000
2594 H_28916 62.239 60.792 -4.412 H 22 CKW::FUZI_22    0.000
2595 H_289171 62.521 61.053 -6.794 H 22 CKW::FUZI_22    0.000
2596 H_289172 62.707 62.635 -6.035 H 22 CKW::FUZI_22    0.000
2597 H_289173 61.205 62.223 -6.897 H 22 CKW::FUZI_22    0.000
2598 H.d21 60.655 61.844 -3.022 H 22 CKW::FUZI_22    0.000
2599 H.d22 61.655 63.073 -3.758 H 22 CKW::FUZI_22    0.000
2600 H_289091 56.630 58.403 0.436 H 22 CKW::FUZI_22    0.000
2601 H_289092 56.105 59.461 1.684 H 22 CKW::FUZI_22    0.000
2602 H_289121 59.738 59.478 -0.346 H 22 CKW::FUZI_22    0.000
2603 H_289122 59.896 60.409 1.149 H 22 CKW::FUZI_22    0.000
2604 H.c 59.939 61.963 -0.983 H 22 CKW::FUZI_22    0.000
2605 H_289181 60.104 59.621 -4.350 H 22 CKW::FUZI_22    0.000
2606 H_289182 60.839 59.417 -5.936 H 22 CKW::FUZI_22    0.000
2607 H_289183 59.501 60.557 -5.741 H 22 CKW::FUZI_22    0.000
2608 H_289011 58.231 64.334 -1.614 H 22 CKW::FUZI_22    0.000
2609 H_289012 59.910 64.052 -2.015 H 22 CKW::FUZI_22    0.000
2610 H_289041 56.901 61.542 -3.423 H 22 CKW::FUZI_22    0.000
2611 H_289042 58.510 60.902 -3.722 H 22 CKW::FUZI_22    0.000
2612 H.e 58.153 63.981 -6.673 H 22 CKW::FUZI_22    0.000
2613 H_288921 58.981 66.115 -7.427 H 22 CKW::FUZI_22    0.000
2614 H_288922 59.067 66.740 -5.759 H 22 CKW::FUZI_22    0.000
2615 H_288941 56.334 66.446 -4.427 H 22 CKW::FUZI_22    0.000
2616 H_288942 55.433 65.365 -5.532 H 22 CKW::FUZI_22    0.000
2617 H_288931 56.911 67.582 -6.411 H 22 CKW::FUZI_22    0.000
2618 H_288932 56.581 66.143 -7.404 H 22 CKW::FUZI_22    0.000
2619 C.b 57.916 80.692 -1.050 C.3 23 CKW::FUZI_23    0.000
2620 C_28893 64.176 86.396 -4.897 C.3 23 CKW::FUZI_23    0.000
2621 C_28894 62.648 86.461 -4.741 C.3 23 CKW::FUZI_23    0.000
2622 C_28892 64.658 85.869 -3.542 C.3 23 CKW::FUZI_23    0.000
2623 N 62.294 85.536 -3.655 N.am 23 CKW::FUZI_23    0.000
2624 O 64.405 84.809 -0.906 O.2 23 CKW::FUZI_23    0.000
2625 C.e 63.505 84.952 -3.097 C.3 23 CKW::FUZI_23    0.000
2626 O 60.091 85.756 -3.791 O.2 23 CKW::FUZI_23    0.000
2627 C_28904 60.712 82.946 -2.463 C.3 23 CKW::FUZI_23    0.000
2628 C_28901 59.568 84.666 -1.231 C.3 23 CKW::FUZI_23    0.000
2629 C.d 60.928 84.393 -1.953 C.3 23 CKW::FUZI_23    0.000
2630 C_28918 62.464 83.080 2.564 C.3 23 CKW::FUZI_23    0.000
2631 C.c 59.073 83.288 -0.751 C.3 23 CKW::FUZI_23    0.000
2632 O 59.818 80.272 -2.518 O.2 23 CKW::FUZI_23    0.000
2633 O 56.869 84.106 -0.351 O.2 23 CKW::FUZI_23    0.000
2634 N 59.653 82.317 -1.665 N.am 23 CKW::FUZI_23    0.000
2635 C_28912 57.239 79.500 -1.770 C.3 23 CKW::FUZI_23    0.000
2636 C_28909 58.305 80.028 0.289 C.3 23 CKW::FUZI_23    0.000
2637 O 53.996 80.663 -2.006 O.co2 23 CKW::FUZI_23    0.000
2638 O 60.562 78.458 1.137 O.2 23 CKW::FUZI_23    0.000
2639 C_28900 63.412 84.720 -1.604 C.2 23 CKW::FUZI_23    0.000
2640 C_28897 61.048 85.284 -3.205 C.2 23 CKW::FUZI_23    0.000
2641 N.d 62.176 84.445 -1.087 N.am 23 CKW::FUZI_23    0.000
2642 C.d2 62.041 84.307 0.395 C.3 23 CKW::FUZI_23    0.000
2643 C_28917 62.309 81.725 0.442 C.3 23 CKW::FUZI_23    0.000
2644 C_28916 62.741 83.078 1.046 C.3 23 CKW::FUZI_23    0.000
2645 C_28908 59.214 81.049 -1.801 C.2 23 CKW::FUZI_23    0.000
2646 C_28905 57.569 83.146 -0.613 C.2 23 CKW::FUZI_23    0.000
2647 N.b 57.052 81.899 -0.813 N.am 23 CKW::FUZI_23    0.000
2648 C.b2 55.604 81.646 -0.603 C.3 23 CKW::FUZI_23    0.000
2649 OH 55.018 82.373 -2.767 O.co2 23 CKW::FUZI_23    0.000
2650 C_28922 54.805 81.562 -1.889 C.2 23 CKW::FUZI_23    0.000
2651 C_28929 53.468 77.939 0.510 C.2 23 CKW::FUZI_23    0.000
2652 C.a2 57.640 77.686 1.057 C.3 23 CKW::FUZI_23    0.000
2653 C_28931 55.391 78.589 1.623 C.2 23 CKW::FUZI_23    0.000
2654 C_28927 55.519 77.015 -0.051 C.2 23 CKW::FUZI_23    0.000
2655 C_28926 56.131 77.771 0.868 C.2 23 CKW::FUZI_23    0.000
2656 C_28935 52.148 78.027 0.315 C.2 23 CKW::FUZI_23    0.000
2657 C_28930 54.073 78.677 1.445 C.2 23 CKW::FUZI_23    0.000
2658 C_28928 54.199 77.097 -0.243 C.2 23 CKW::FUZI_23    0.000
2659 C_28932 53.597 76.356 -1.179 C.2 23 CKW::FUZI_23    0.000
2660 C_28933 52.280 76.450 -1.368 C.2 23 CKW::FUZI_23    0.000
2661 C_28934 51.556 77.284 -0.622 C.2 23 CKW::FUZI_23    0.000
2662 C.a 58.472 78.500 0.012 C.3 23 CKW::FUZI_23    0.000
2663 N 57.997 78.308 -1.366 N.am 23 CKW::FUZI_23    0.000
2664 O 57.893 77.294 -3.325 O.2 23 CKW::FUZI_23    0.000
2665 C_28938 59.708 76.579 -1.876 C.3 23 CKW::FUZI_23    0.000
2666 C_28936 59.928 78.080 0.168 C.2 23 CKW::FUZI_23    0.000
2667 C_28939 58.454 77.393 -2.251 C.2 23 CKW::FUZI_23    0.000
2668 N.z 60.496 77.285 -0.790 N.am 23 CKW::FUZI_23    0.000
2669 C.z2 61.966 77.028 -0.724 C.3 23 CKW::FUZI_23    0.000
2670 C_28975 60.552 76.314 -3.181 C.3 23 CKW::FUZI_23    0.000
2671 C_28944 59.235 75.186 -1.351 C.3 23 CKW::FUZI_23    0.000
2672 C_28945 58.569 74.307 -2.432 C.3 23 CKW::FUZI_23    0.000
2673 NH 59.519 74.079 -3.546 N.2 23 CKW::FUZI_23    0.000
2674 C_28979 62.318 74.060 1.493 C.2 23 CKW::FUZI_23    0.000
2675 C_28980 61.964 75.257 1.015 C.2 23 CKW::FUZI_23    0.000
2676 C_28976 63.176 74.869 -0.902 C.2 23 CKW::FUZI_23    0.000
2677 C_28977 63.538 73.673 -0.437 C.2 23 CKW::FUZI_23    0.000
2678 C_28943 62.382 75.670 -0.186 C.2 23 CKW::FUZI_23    0.000
2679 C_28984 61.891 73.648 2.692 C.2 23 CKW::FUZI_23    0.000
2680 C_28978 63.113 73.259 0.760 C.2 23 CKW::FUZI_23    0.000
2681 C_28981 63.467 72.060 1.237 C.2 23 CKW::FUZI_23    0.000
2682 C_28982 63.036 71.659 2.433 C.2 23 CKW::FUZI_23    0.000
2683 C_28983 62.249 72.452 3.160 C.2 23 CKW::FUZI_23    0.000
2684 C_28974 59.919 75.342 -4.210 C.3 23 CKW::FUZI_23    0.000
2685 H_289741 59.057 75.782 -4.712 H 23 CKW::FUZI_23    0.000
2686 H_289742 60.662 75.110 -4.977 H 23 CKW::FUZI_23    0.000
2687 H_28983 61.898 72.123 4.135 H 23 CKW::FUZI_23    0.000
2688 H_28982 63.327 70.684 2.816 H 23 CKW::FUZI_23    0.000
2689 H_28981 64.109 71.403 0.654 H 23 CKW::FUZI_23    0.000
2690 H_28984 61.247 74.285 3.297 H 23 CKW::FUZI_23    0.000
2691 H_28977 64.183 73.040 -1.042 H 23 CKW::FUZI_23    0.000
2692 H_28976 63.535 75.186 -1.879 H 23 CKW::FUZI_23    0.000
2693 H_28980 61.320 75.902 1.609 H 23 CKW::FUZI_23    0.000
2694 H_289451 58.301 73.341 -1.995 H 23 CKW::FUZI_23    0.000
2695 H_289452 57.659 74.779 -2.809 H 23 CKW::FUZI_23    0.000
2696 H_289441 58.532 75.305 -0.530 H 23 CKW::FUZI_23    0.000
2697 H_289442 60.082 74.627 -0.954 H 23 CKW::FUZI_23    0.000
2698 H_289751 61.499 75.838 -2.933 H 23 CKW::FUZI_23    0.000
2699 H_289752 60.789 77.263 -3.669 H 23 CKW::FUZI_23    0.000
2700 H.z21 62.435 77.780 -0.086 H 23 CKW::FUZI_23    0.000
2701 H.z22 62.417 77.211 -1.701 H 23 CKW::FUZI_23    0.000
2702 H_28934 50.483 77.359 -0.777 H 23 CKW::FUZI_23    0.000
2703 H_28933 51.796 75.845 -2.131 H 23 CKW::FUZI_23    0.000
2704 H_28932 54.175 75.671 -1.797 H 23 CKW::FUZI_23    0.000
2705 H_28930 53.497 79.359 2.067 H 23 CKW::FUZI_23    0.000
2706 H_28935 51.545 78.704 0.917 H 23 CKW::FUZI_23    0.000
2707 H_28927 56.109 76.334 -0.661 H 23 CKW::FUZI_23    0.000
2708 H_28931 55.862 79.203 2.386 H 23 CKW::FUZI_23    0.000
2709 H.a21 57.905 78.024 2.063 H 23 CKW::FUZI_23    0.000
2710 H.a22 57.933 76.637 1.030 H 23 CKW::FUZI_23    0.000
2711 H.b21 55.157 82.443 -0.005 H 23 CKW::FUZI_23    0.000
2712 H.b22 55.464 80.715 -0.052 H 23 CKW::FUZI_23    0.000
2713 H_28916 63.821 83.167 0.914 H 23 CKW::FUZI_23    0.000
2714 H_289171 62.795 80.901 0.968 H 23 CKW::FUZI_23    0.000
2715 H_289172 62.600 81.657 -0.606 H 23 CKW::FUZI_23    0.000
2716 H_289173 61.232 81.588 0.525 H 23 CKW::FUZI_23    0.000
2717 H.d21 61.007 84.296 0.718 H 23 CKW::FUZI_23    0.000
2718 H.d22 62.475 85.208 0.838 H 23 CKW::FUZI_23    0.000
2719 H_289091 57.516 80.201 1.022 H 23 CKW::FUZI_23    0.000
2720 H_289092 59.201 80.490 0.705 H 23 CKW::FUZI_23    0.000
2721 H_289121 56.210 79.340 -1.452 H 23 CKW::FUZI_23    0.000
2722 H_289122 57.255 79.647 -2.854 H 23 CKW::FUZI_23    0.000
2723 H.c 59.470 83.069 0.242 H 23 CKW::FUZI_23    0.000
2724 H_289181 62.992 82.258 3.053 H 23 CKW::FUZI_23    0.000
2725 H_289182 61.395 82.970 2.764 H 23 CKW::FUZI_23    0.000
2726 H_289183 62.804 84.015 3.014 H 23 CKW::FUZI_23    0.000
2727 H_289011 58.817 85.043 -1.927 H 23 CKW::FUZI_23    0.000
2728 H_289012 59.640 85.402 -0.428 H 23 CKW::FUZI_23    0.000
2729 H_289041 60.371 82.958 -3.502 H 23 CKW::FUZI_23    0.000
2730 H_289042 61.633 82.363 -2.413 H 23 CKW::FUZI_23    0.000
2731 H.e 63.631 83.968 -3.556 H 23 CKW::FUZI_23    0.000
2732 H_288921 65.608 85.335 -3.618 H 23 CKW::FUZI_23    0.000
2733 H_288922 64.770 86.705 -2.846 H 23 CKW::FUZI_23    0.000
2734 H_288941 62.345 87.471 -4.455 H 23 CKW::FUZI_23    0.000
2735 H_288942 62.150 86.173 -5.671 H 23 CKW::FUZI_23    0.000
2736 H_288931 64.609 87.369 -5.143 H 23 CKW::FUZI_23    0.000
2737 H_288932 64.435 85.682 -5.684 H 23 CKW::FUZI_23    0.000
2738 C.b 59.207 101.493 0.005 C.3 24 CKW::FUZI_24    0.000
2739 C_28893 60.760 109.911 2.898 C.3 24 CKW::FUZI_24    0.000
2740 C_28894 59.916 108.649 2.647 C.3 24 CKW::FUZI_24    0.000
2741 C_28892 62.207 109.417 2.782 C.3 24 CKW::FUZI_24    0.000
2742 N 60.792 107.675 1.980 N.am 24 CKW::FUZI_24    0.000
2743 O 64.379 107.707 1.960 O.2 24 CKW::FUZI_24    0.000
2744 C.e 62.090 108.289 1.746 C.3 24 CKW::FUZI_24    0.000
2745 O 59.323 106.013 1.830 O.2 24 CKW::FUZI_24    0.000
2746 C_28904 61.218 104.797 -0.008 C.3 24 CKW::FUZI_24    0.000
2747 C_28901 61.537 104.239 2.366 C.3 24 CKW::FUZI_24    0.000
2748 C.d 61.616 105.426 1.353 C.3 24 CKW::FUZI_24    0.000
2749 C_28918 66.199 104.384 -0.148 C.3 24 CKW::FUZI_24    0.000
2750 C.c 61.172 102.998 1.531 C.3 24 CKW::FUZI_24    0.000
2751 O 59.638 103.171 -1.688 O.2 24 CKW::FUZI_24    0.000
2752 O 60.431 101.779 3.429 O.2 24 CKW::FUZI_24    0.000
2753 N 60.632 103.486 0.274 N.am 24 CKW::FUZI_24    0.000
2754 C_28912 57.725 101.436 -0.460 C.3 24 CKW::FUZI_24    0.000
2755 C_28909 59.852 100.273 -0.709 C.3 24 CKW::FUZI_24    0.000
2756 O 56.237 100.132 2.555 O.co2 24 CKW::FUZI_24    0.000
2757 O 59.949 97.559 -1.725 O.2 24 CKW::FUZI_24    0.000
2758 C_28900 63.254 107.326 1.697 C.2 24 CKW::FUZI_24    0.000
2759 C_28897 60.477 106.388 1.729 C.2 24 CKW::FUZI_24    0.000
2760 N.d 62.990 106.039 1.330 N.am 24 CKW::FUZI_24    0.000
2761 C.d2 64.104 105.079 1.086 C.3 24 CKW::FUZI_24    0.000
2762 C_28917 64.409 105.630 -1.421 C.3 24 CKW::FUZI_24    0.000
2763 C_28916 65.096 105.458 -0.050 C.3 24 CKW::FUZI_24    0.000
2764 C_28908 59.840 102.777 -0.555 C.2 24 CKW::FUZI_24    0.000
2765 C_28905 60.292 101.990 2.239 C.2 24 CKW::FUZI_24    0.000
2766 N.b 59.348 101.344 1.497 N.am 24 CKW::FUZI_24    0.000
2767 C.b2 58.542 100.260 2.123 C.3 24 CKW::FUZI_24    0.000
2768 OH 57.292 101.740 3.470 O.co2 24 CKW::FUZI_24    0.000
2769 C_28922 57.262 100.743 2.776 C.2 24 CKW::FUZI_24    0.000
2770 C_28929 55.953 98.443 -5.613 C.2 24 CKW::FUZI_24    0.000
2771 C.a2 58.884 100.018 -3.034 C.3 24 CKW::FUZI_24    0.000
2772 C_28931 56.658 100.074 -4.130 C.2 24 CKW::FUZI_24    0.000
2773 C_28927 58.050 98.309 -4.630 C.2 24 CKW::FUZI_24    0.000
2774 C_28926 57.822 99.441 -3.954 C.2 24 CKW::FUZI_24    0.000
2775 C_28935 55.027 97.934 -6.433 C.2 24 CKW::FUZI_24    0.000
2776 C_28930 55.729 99.580 -4.948 C.2 24 CKW::FUZI_24    0.000
2777 C_28928 57.127 97.802 -5.454 C.2 24 CKW::FUZI_24    0.000
2778 C_28932 57.353 96.663 -6.117 C.2 24 CKW::FUZI_24    0.000
2779 C_28933 56.424 96.163 -6.932 C.2 24 CKW::FUZI_24    0.000
2780 C_28934 55.262 96.797 -7.089 C.2 24 CKW::FUZI_24    0.000
2781 C.a 58.738 99.582 -1.543 C.3 24 CKW::FUZI_24    0.000
2782 N 57.492 100.083 -0.971 N.am 24 CKW::FUZI_24    0.000
2783 O 55.333 99.985 -0.507 O.2 24 CKW::FUZI_24    0.000
2784 C_28938 56.416 97.837 -0.799 C.3 24 CKW::FUZI_24    0.000
2785 C_28936 58.880 98.072 -1.444 C.2 24 CKW::FUZI_24    0.000
2786 C_28939 56.360 99.379 -0.759 C.2 24 CKW::FUZI_24    0.000
2787 N.z 57.823 97.323 -1.007 N.am 24 CKW::FUZI_24    0.000
2788 C.z2 58.057 95.882 -0.726 C.3 24 CKW::FUZI_24    0.000
2789 C_28975 55.487 97.422 -1.993 C.3 24 CKW::FUZI_24    0.000
2790 C_28944 55.798 97.374 0.577 C.3 24 CKW::FUZI_24    0.000
2791 C_28945 55.049 96.021 0.571 C.3 24 CKW::FUZI_24    0.000
2792 NH 54.078 95.987 -0.544 N.2 24 CKW::FUZI_24    0.000
2793 C_28979 58.621 93.958 2.403 C.2 24 CKW::FUZI_24    0.000
2794 C_28980 58.232 94.314 1.175 C.2 24 CKW::FUZI_24    0.000
2795 C_28976 59.240 96.366 1.432 C.2 24 CKW::FUZI_24    0.000
2796 C_28977 59.634 96.023 2.658 C.2 24 CKW::FUZI_24    0.000
2797 C_28943 58.530 95.519 0.676 C.2 24 CKW::FUZI_24    0.000
2798 C_28984 58.314 92.753 2.896 C.2 24 CKW::FUZI_24    0.000
2799 C_28978 59.329 94.822 3.154 C.2 24 CKW::FUZI_24    0.000
2800 C_28981 59.718 94.467 4.384 C.2 24 CKW::FUZI_24    0.000
2801 C_28982 59.407 93.264 4.866 C.2 24 CKW::FUZI_24    0.000
2802 C_28983 58.706 92.407 4.123 C.2 24 CKW::FUZI_24    0.000
2803 C_28974 54.757 96.068 -1.856 C.3 24 CKW::FUZI_24    0.000
2804 H_289741 54.004 95.991 -2.645 H 24 CKW::FUZI_24    0.000
2805 H_289742 55.446 95.231 -1.974 H 24 CKW::FUZI_24    0.000
2806 H_28983 58.453 91.426 4.518 H 24 CKW::FUZI_24    0.000
2807 H_28982 59.725 92.981 5.866 H 24 CKW::FUZI_24    0.000
2808 H_28981 60.290 95.157 5.001 H 24 CKW::FUZI_24    0.000
2809 H_28984 57.742 92.043 2.301 H 24 CKW::FUZI_24    0.000
2810 H_28977 60.207 96.735 3.250 H 24 CKW::FUZI_24    0.000
2811 H_28976 59.506 97.351 1.063 H 24 CKW::FUZI_24    0.000
2812 H_28980 57.660 93.615 0.568 H 24 CKW::FUZI_24    0.000
2813 H_289451 55.732 95.177 0.488 H 24 CKW::FUZI_24    0.000
2814 H_289452 54.504 95.914 1.512 H 24 CKW::FUZI_24    0.000
2815 H_289441 55.053 98.091 0.924 H 24 CKW::FUZI_24    0.000
2816 H_289442 56.566 97.369 1.352 H 24 CKW::FUZI_24    0.000
2817 H_289751 56.065 97.404 -2.915 H 24 CKW::FUZI_24    0.000
2818 H_289752 54.706 98.172 -2.141 H 24 CKW::FUZI_24    0.000
2819 H.z21 58.797 95.501 -1.434 H 24 CKW::FUZI_24    0.000
2820 H.z22 57.159 95.320 -0.955 H 24 CKW::FUZI_24    0.000
2821 H_28934 54.505 96.388 -7.754 H 24 CKW::FUZI_24    0.000
2822 H_28933 56.613 95.236 -7.468 H 24 CKW::FUZI_24    0.000
2823 H_28932 58.296 96.134 -5.997 H 24 CKW::FUZI_24    0.000
2824 H_28930 54.788 100.112 -5.067 H 24 CKW::FUZI_24    0.000
2825 H_28935 54.074 98.441 -6.570 H 24 CKW::FUZI_24    0.000
2826 H_28927 58.999 97.793 -4.502 H 24 CKW::FUZI_24    0.000
2827 H_28931 56.458 101.001 -3.598 H 24 CKW::FUZI_24    0.000
2828 H.a21 59.872 99.729 -3.400 H 24 CKW::FUZI_24    0.000
2829 H.a22 58.853 101.107 -3.105 H 24 CKW::FUZI_24    0.000
2830 H.b21 59.127 99.764 2.902 H 24 CKW::FUZI_24    0.000
2831 H.b22 58.278 99.494 1.393 H 24 CKW::FUZI_24    0.000
2832 H_28916 65.586 106.401 0.197 H 24 CKW::FUZI_24    0.000
2833 H_289171 65.134 105.959 -2.169 H 24 CKW::FUZI_24    0.000
2834 H_289172 63.618 106.382 -1.371 H 24 CKW::FUZI_24    0.000
2835 H_289173 63.978 104.687 -1.763 H 24 CKW::FUZI_24    0.000
2836 H.d21 63.700 104.092 0.850 H 24 CKW::FUZI_24    0.000
2837 H.d22 64.665 104.983 2.019 H 24 CKW::FUZI_24    0.000
2838 H_289091 60.255 99.578 0.032 H 24 CKW::FUZI_24    0.000
2839 H_289092 60.700 100.567 -1.335 H 24 CKW::FUZI_24    0.000
2840 H_289121 57.041 101.679 0.356 H 24 CKW::FUZI_24    0.000
2841 H_289122 57.523 102.131 -1.278 H 24 CKW::FUZI_24    0.000
2842 H.c 62.092 102.461 1.284 H 24 CKW::FUZI_24    0.000
2843 H_289181 65.773 103.411 -0.405 H 24 CKW::FUZI_24    0.000
2844 H_289182 66.727 104.288 0.803 H 24 CKW::FUZI_24    0.000
2845 H_289183 66.930 104.653 -0.914 H 24 CKW::FUZI_24    0.000
2846 H_289011 60.776 104.415 3.130 H 24 CKW::FUZI_24    0.000
2847 H_289012 62.473 104.072 2.904 H 24 CKW::FUZI_24    0.000
2848 H_289041 60.503 105.428 -0.544 H 24 CKW::FUZI_24    0.000
2849 H_289042 62.086 104.638 -0.645 H 24 CKW::FUZI_24    0.000
2850 H.e 62.044 108.739 0.750 H 24 CKW::FUZI_24    0.000
2851 H_288921 62.891 110.207 2.462 H 24 CKW::FUZI_24    0.000
2852 H_288922 62.542 109.016 3.742 H 24 CKW::FUZI_24    0.000
2853 H_288941 59.582 108.229 3.600 H 24 CKW::FUZI_24    0.000
2854 H_288942 59.050 108.878 2.020 H 24 CKW::FUZI_24    0.000
2855 H_288931 60.553 110.359 3.873 H 24 CKW::FUZI_24    0.000
2856 H_288932 60.558 110.649 2.118 H 24 CKW::FUZI_24    0.000
2857 C.b 79.302 -0.672 0.256 C.3 25 CKW::FUZI_25    0.000
2858 C_28893 86.917 -6.034 -1.917 C.3 25 CKW::FUZI_25    0.000
2859 C_28894 85.487 -6.328 -1.433 C.3 25 CKW::FUZI_25    0.000
2860 C_28892 86.783 -4.711 -2.681 C.3 25 CKW::FUZI_25    0.000
2861 N 84.768 -5.048 -1.440 N.am 25 CKW::FUZI_25    0.000
2862 O 85.557 -2.202 -3.492 O.2 25 CKW::FUZI_25    0.000
2863 C.e 85.649 -3.992 -1.932 C.3 25 CKW::FUZI_25    0.000
2864 O 82.825 -5.769 -0.618 O.2 25 CKW::FUZI_25    0.000
2865 C_28904 81.338 -3.500 -1.415 C.3 25 CKW::FUZI_25    0.000
2866 C_28901 83.137 -2.564 -0.170 C.3 25 CKW::FUZI_25    0.000
2867 C.d 82.898 -3.471 -1.405 C.3 25 CKW::FUZI_25    0.000
2868 C_28918 83.688 -2.731 -5.810 C.3 25 CKW::FUZI_25    0.000
2869 C.c 81.986 -1.548 -0.211 C.3 25 CKW::FUZI_25    0.000
2870 O 78.692 -2.545 -1.175 O.2 25 CKW::FUZI_25    0.000
2871 O 82.537 -0.684 1.937 O.2 25 CKW::FUZI_25    0.000
2872 N 80.857 -2.272 -0.769 N.am 25 CKW::FUZI_25    0.000
2873 C_28912 77.847 -0.730 0.798 C.3 25 CKW::FUZI_25    0.000
2874 C_28909 79.275 0.596 -0.643 C.3 25 CKW::FUZI_25    0.000
2875 O 81.165 2.144 1.830 O.co2 25 CKW::FUZI_25    0.000
2876 O 78.964 3.467 -0.712 O.2 25 CKW::FUZI_25    0.000
2877 C_28900 84.932 -2.932 -2.747 C.2 25 CKW::FUZI_25    0.000
2878 C_28897 83.473 -4.862 -1.104 C.2 25 CKW::FUZI_25    0.000
2879 N.d 83.575 -2.853 -2.608 N.am 25 CKW::FUZI_25    0.000
2880 C.d2 82.780 -1.964 -3.508 C.3 25 CKW::FUZI_25    0.000
2881 C_28917 81.598 -3.815 -4.901 C.3 25 CKW::FUZI_25    0.000
2882 C_28916 82.439 -2.521 -4.926 C.3 25 CKW::FUZI_25    0.000
2883 C_28908 79.568 -1.901 -0.632 C.2 25 CKW::FUZI_25    0.000
2884 C_28905 81.667 -0.876 1.108 C.2 25 CKW::FUZI_25    0.000
2885 N.b 80.368 -0.507 1.314 N.am 25 CKW::FUZI_25    0.000
2886 C.b2 80.010 0.211 2.571 C.3 25 CKW::FUZI_25    0.000
2887 OH 79.665 2.401 3.317 O.co2 25 CKW::FUZI_25    0.000
2888 C_28922 80.303 1.699 2.561 C.2 25 CKW::FUZI_25    0.000
2889 C_28929 75.590 -2.364 -2.974 C.2 25 CKW::FUZI_25    0.000
2890 C.a2 77.054 1.362 -1.661 C.3 25 CKW::FUZI_25    0.000
2891 C_28931 77.142 -0.653 -3.115 C.2 25 CKW::FUZI_25    0.000
2892 C_28927 75.431 -0.516 -1.582 C.2 25 CKW::FUZI_25    0.000
2893 C_28926 76.534 0.011 -2.126 C.2 25 CKW::FUZI_25    0.000
2894 C_28935 75.119 -3.547 -3.381 C.2 25 CKW::FUZI_25    0.000
2895 C_28930 76.679 -1.830 -3.534 C.2 25 CKW::FUZI_25    0.000
2896 C_28928 74.959 -1.698 -1.990 C.2 25 CKW::FUZI_25    0.000
2897 C_28932 73.866 -2.227 -1.429 C.2 25 CKW::FUZI_25    0.000
2898 C_28933 73.404 -3.409 -1.840 C.2 25 CKW::FUZI_25    0.000
2899 C_28934 74.030 -4.068 -2.815 C.2 25 CKW::FUZI_25    0.000
2900 C.a 77.942 1.354 -0.371 C.3 25 CKW::FUZI_25    0.000
2901 N 77.316 0.636 0.740 N.am 25 CKW::FUZI_25    0.000
2902 O 75.860 0.420 2.395 O.2 25 CKW::FUZI_25    0.000
2903 C_28938 76.351 2.700 1.723 C.3 25 CKW::FUZI_25    0.000
2904 C_28936 78.176 2.823 -0.044 C.2 25 CKW::FUZI_25    0.000
2905 C_28939 76.474 1.166 1.653 C.2 25 CKW::FUZI_25    0.000
2906 N.z 77.452 3.402 0.962 N.am 25 CKW::FUZI_25    0.000
2907 C.z2 77.567 4.874 1.188 C.3 25 CKW::FUZI_25    0.000
2908 C_28975 76.342 3.103 3.247 C.3 25 CKW::FUZI_25    0.000
2909 C_28944 74.968 3.053 1.082 C.3 25 CKW::FUZI_25    0.000
2910 C_28945 73.767 2.767 2.015 C.3 25 CKW::FUZI_25    0.000
2911 NH 73.875 3.466 3.327 N.2 25 CKW::FUZI_25    0.000
2912 C_28979 80.885 5.617 2.736 C.2 25 CKW::FUZI_25    0.000
2913 C_28980 79.944 5.191 1.887 C.2 25 CKW::FUZI_25    0.000
2914 C_28976 78.301 6.009 3.270 C.2 25 CKW::FUZI_25    0.000
2915 C_28977 79.228 6.442 4.125 C.2 25 CKW::FUZI_25    0.000
2916 C_28943 78.643 5.368 2.147 C.2 25 CKW::FUZI_25    0.000
2917 C_28984 82.182 5.421 2.473 C.2 25 CKW::FUZI_25    0.000
2918 C_28978 80.524 6.247 3.868 C.2 25 CKW::FUZI_25    0.000
2919 C_28981 81.465 6.671 4.719 C.2 25 CKW::FUZI_25    0.000
2920 C_28982 82.755 6.470 4.449 C.2 25 CKW::FUZI_25    0.000
2921 C_28983 83.113 5.846 3.327 C.2 25 CKW::FUZI_25    0.000
2922 C_28974 75.199 4.068 3.635 C.3 25 CKW::FUZI_25    0.000
2923 H_289741 75.250 4.270 4.708 H 25 CKW::FUZI_25    0.000
2924 H_289742 75.288 5.018 3.106 H 25 CKW::FUZI_25    0.000
2925 H_28983 84.166 5.683 3.108 H 25 CKW::FUZI_25    0.000
2926 H_28982 83.516 6.816 5.145 H 25 CKW::FUZI_25    0.000
2927 H_28981 81.186 7.182 5.639 H 25 CKW::FUZI_25    0.000
2928 H_28984 82.489 4.912 1.561 H 25 CKW::FUZI_25    0.000
2929 H_28977 78.917 6.954 5.033 H 25 CKW::FUZI_25    0.000
2930 H_28976 77.254 6.182 3.503 H 25 CKW::FUZI_25    0.000
2931 H_28980 80.248 4.689 0.975 H 25 CKW::FUZI_25    0.000
2932 H_289451 72.850 3.100 1.521 H 25 CKW::FUZI_25    0.000
2933 H_289452 73.680 1.694 2.195 H 25 CKW::FUZI_25    0.000
2934 H_289441 74.826 2.492 0.157 H 25 CKW::FUZI_25    0.000
2935 H_289442 74.929 4.107 0.802 H 25 CKW::FUZI_25    0.000
2936 H_289751 77.297 3.530 3.543 H 25 CKW::FUZI_25    0.000
2937 H_289752 76.238 2.232 3.895 H 25 CKW::FUZI_25    0.000
2938 H.z21 76.605 5.262 1.518 H 25 CKW::FUZI_25    0.000
2939 H.z22 77.740 5.354 0.221 H 25 CKW::FUZI_25    0.000
2940 H_28934 73.652 -5.031 -3.150 H 25 CKW::FUZI_25    0.000
2941 H_28933 72.516 -3.835 -1.380 H 25 CKW::FUZI_25    0.000
2942 H_28932 73.345 -1.701 -0.631 H 25 CKW::FUZI_25    0.000
2943 H_28930 77.199 -2.351 -4.336 H 25 CKW::FUZI_25    0.000
2944 H_28935 75.620 -4.096 -4.176 H 25 CKW::FUZI_25    0.000
2945 H_28927 74.918 0.025 -0.789 H 25 CKW::FUZI_25    0.000
2946 H_28931 78.030 -0.237 -3.586 H 25 CKW::FUZI_25    0.000
2947 H.a21 77.619 1.826 -2.474 H 25 CKW::FUZI_25    0.000
2948 H.a22 76.199 2.020 -1.505 H 25 CKW::FUZI_25    0.000
2949 H.b21 80.590 -0.210 3.397 H 25 CKW::FUZI_25    0.000
2950 H.b22 78.963 0.097 2.843 H 25 CKW::FUZI_25    0.000
2951 H_28916 81.834 -1.759 -5.422 H 25 CKW::FUZI_25    0.000
2952 H_289171 82.084 -4.593 -4.307 H 25 CKW::FUZI_25    0.000
2953 H_289172 81.458 -4.200 -5.914 H 25 CKW::FUZI_25    0.000
2954 H_289173 80.605 -3.620 -4.493 H 25 CKW::FUZI_25    0.000
2955 H.d21 83.341 -1.035 -3.640 H 25 CKW::FUZI_25    0.000
2956 H.d22 81.845 -1.666 -3.037 H 25 CKW::FUZI_25    0.000
2957 H_289091 79.365 0.327 -1.698 H 25 CKW::FUZI_25    0.000
2958 H_289092 80.141 1.226 -0.432 H 25 CKW::FUZI_25    0.000
2959 H_289121 77.203 -1.347 0.172 H 25 CKW::FUZI_25    0.000
2960 H_289122 77.804 -1.150 1.805 H 25 CKW::FUZI_25    0.000
2961 H.c 82.238 -0.745 -0.909 H 25 CKW::FUZI_25    0.000
2962 H_289181 84.303 -3.553 -5.436 H 25 CKW::FUZI_25    0.000
2963 H_289182 84.292 -1.822 -5.846 H 25 CKW::FUZI_25    0.000
2964 H_289183 83.392 -2.974 -6.833 H 25 CKW::FUZI_25    0.000
2965 H_289011 84.112 -2.072 -0.180 H 25 CKW::FUZI_25    0.000
2966 H_289012 83.062 -3.156 0.747 H 25 CKW::FUZI_25    0.000
2967 H_289041 80.927 -3.591 -2.415 H 25 CKW::FUZI_25    0.000
2968 H_289042 80.954 -4.330 -0.818 H 25 CKW::FUZI_25    0.000
2969 H.e 86.064 -3.483 -1.057 H 25 CKW::FUZI_25    0.000
2970 H_288921 87.711 -4.136 -2.681 H 25 CKW::FUZI_25    0.000
2971 H_288922 86.484 -4.912 -3.714 H 25 CKW::FUZI_25    0.000
2972 H_288941 84.992 -7.013 -2.126 H 25 CKW::FUZI_25    0.000
2973 H_288942 85.497 -6.759 -0.428 H 25 CKW::FUZI_25    0.000
2974 H_288931 87.314 -6.835 -2.544 H 25 CKW::FUZI_25    0.000
2975 H_288932 87.574 -5.896 -1.055 H 25 CKW::FUZI_25    0.000
2976 C.b 82.336 20.401 1.007 C.3 26 CKW::FUZI_26    0.000
2977 C_28893 82.386 25.730 7.182 C.3 26 CKW::FUZI_26    0.000
2978 C_28894 83.003 24.856 6.078 C.3 26 CKW::FUZI_26    0.000
2979 C_28892 81.433 26.661 6.423 C.3 26 CKW::FUZI_26    0.000
2980 N 82.074 24.896 4.942 N.am 26 CKW::FUZI_26    0.000
2981 O 79.928 27.647 4.170 O.2 26 CKW::FUZI_26    0.000
2982 C.e 80.958 25.788 5.249 C.3 26 CKW::FUZI_26    0.000
2983 O 83.189 23.524 3.586 O.2 26 CKW::FUZI_26    0.000
2984 C_28904 81.769 24.180 1.281 C.3 26 CKW::FUZI_26    0.000
2985 C_28901 80.056 23.571 2.830 C.3 26 CKW::FUZI_26    0.000
2986 C.d 81.203 24.596 2.669 C.3 26 CKW::FUZI_26    0.000
2987 C_28918 78.556 28.160 0.561 C.3 26 CKW::FUZI_26    0.000
2988 C.c 80.518 22.305 2.074 C.3 26 CKW::FUZI_26    0.000
2989 O 83.341 22.290 -0.150 O.2 26 CKW::FUZI_26    0.000
2990 O 80.489 20.990 4.076 O.2 26 CKW::FUZI_26    0.000
2991 N 81.612 22.726 1.195 N.am 26 CKW::FUZI_26    0.000
2992 C_28912 83.582 19.564 0.590 C.3 26 CKW::FUZI_26    0.000
2993 C_28909 81.284 19.755 0.072 C.3 26 CKW::FUZI_26    0.000
2994 O 83.388 20.597 5.293 O.co2 26 CKW::FUZI_26    0.000
2995 O 80.204 18.115 -1.959 O.2 26 CKW::FUZI_26    0.000
2996 C_28900 80.463 26.562 4.040 C.2 26 CKW::FUZI_26    0.000
2997 C_28897 82.244 24.273 3.756 C.2 26 CKW::FUZI_26    0.000
2998 N.d 80.678 25.998 2.814 N.am 26 CKW::FUZI_26    0.000
2999 C.d2 80.437 26.806 1.589 C.3 26 CKW::FUZI_26    0.000
3000 C_28917 78.785 25.733 -0.070 C.3 26 CKW::FUZI_26    0.000
3001 C_28916 78.974 26.763 1.067 C.3 26 CKW::FUZI_26    0.000
3002 C_28908 82.482 21.875 0.606 C.2 26 CKW::FUZI_26    0.000
3003 C_28905 80.942 21.141 2.956 C.2 26 CKW::FUZI_26    0.000
3004 N.b 81.897 20.309 2.447 N.am 26 CKW::FUZI_26    0.000
3005 C.b2 82.663 19.443 3.378 C.3 26 CKW::FUZI_26    0.000
3006 OH 84.736 20.528 3.645 O.co2 26 CKW::FUZI_26    0.000
3007 C_28922 83.683 20.233 4.173 C.2 26 CKW::FUZI_26    0.000
3008 C_28929 76.831 17.176 1.011 C.2 26 CKW::FUZI_26    0.000
3009 C.a2 81.044 17.354 1.011 C.3 26 CKW::FUZI_26    0.000
3010 C_28931 78.878 16.371 0.293 C.2 26 CKW::FUZI_26    0.000
3011 C_28927 78.802 18.148 1.749 C.2 26 CKW::FUZI_26    0.000
3012 C_28926 79.522 17.298 1.009 C.2 26 CKW::FUZI_26    0.000
3013 C_28935 75.495 17.129 1.011 C.2 26 CKW::FUZI_26    0.000
3014 C_28930 77.546 16.311 0.287 C.2 26 CKW::FUZI_26    0.000
3015 C_28928 77.466 18.102 1.752 C.2 26 CKW::FUZI_26    0.000
3016 C_28932 76.754 18.966 2.483 C.2 26 CKW::FUZI_26    0.000
3017 C_28933 75.422 18.913 2.477 C.2 26 CKW::FUZI_26    0.000
3018 C_28934 74.793 17.996 1.742 C.2 26 CKW::FUZI_26    0.000
3019 C.a 81.673 18.263 -0.097 C.3 26 CKW::FUZI_26    0.000
3020 N 83.130 18.276 0.035 N.am 26 CKW::FUZI_26    0.000
3021 O 85.158 17.434 -0.251 O.2 26 CKW::FUZI_26    0.000
3022 C_28938 83.428 16.448 -1.632 C.3 26 CKW::FUZI_26    0.000
3023 C_28936 81.233 17.718 -1.446 C.2 26 CKW::FUZI_26    0.000
3024 C_28939 83.978 17.404 -0.553 C.2 26 CKW::FUZI_26    0.000
3025 N.z 82.016 16.774 -2.047 N.am 26 CKW::FUZI_26    0.000
3026 C.z2 81.509 16.034 -3.241 C.3 26 CKW::FUZI_26    0.000
3027 C_28975 83.490 15.008 -1.028 C.3 26 CKW::FUZI_26    0.000
3028 C_28944 84.399 16.567 -2.870 C.3 26 CKW::FUZI_26    0.000
3029 C_28945 85.041 15.223 -3.282 C.3 26 CKW::FUZI_26    0.000
3030 NH 85.743 14.611 -2.124 N.2 26 CKW::FUZI_26    0.000
3031 C_28979 77.855 15.330 -3.435 C.2 26 CKW::FUZI_26    0.000
3032 C_28980 79.049 15.914 -3.574 C.2 26 CKW::FUZI_26    0.000
3033 C_28976 80.057 14.152 -2.495 C.2 26 CKW::FUZI_26    0.000
3034 C_28977 78.874 13.554 -2.355 C.2 26 CKW::FUZI_26    0.000
3035 C_28943 80.160 15.342 -3.096 C.2 26 CKW::FUZI_26    0.000
3036 C_28984 76.747 15.919 -3.898 C.2 26 CKW::FUZI_26    0.000
3037 C_28978 77.765 14.138 -2.817 C.2 26 CKW::FUZI_26    0.000
3038 C_28981 76.571 13.554 -2.673 C.2 26 CKW::FUZI_26    0.000
3039 C_28982 75.471 14.150 -3.136 C.2 26 CKW::FUZI_26    0.000
3040 C_28983 75.559 15.331 -3.748 C.2 26 CKW::FUZI_26    0.000
3041 C_28974 84.928 14.451 -0.886 C.3 26 CKW::FUZI_26    0.000
3042 H_289741 85.441 14.954 -0.063 H 26 CKW::FUZI_26    0.000
3043 H_289742 84.872 13.387 -0.641 H 26 CKW::FUZI_26    0.000
3044 H_28983 74.662 15.815 -4.125 H 26 CKW::FUZI_26    0.000
3045 H_28982 74.502 13.671 -3.015 H 26 CKW::FUZI_26    0.000
3046 H_28981 76.485 12.590 -2.175 H 26 CKW::FUZI_26    0.000
3047 H_28984 76.803 16.883 -4.398 H 26 CKW::FUZI_26    0.000
3048 H_28977 78.821 12.589 -1.856 H 26 CKW::FUZI_26    0.000
3049 H_28976 80.940 13.655 -2.106 H 26 CKW::FUZI_26    0.000
3050 H_28980 79.120 16.877 -4.075 H 26 CKW::FUZI_26    0.000
3051 H_289451 84.281 14.530 -3.653 H 26 CKW::FUZI_26    0.000
3052 H_289452 85.765 15.399 -4.082 H 26 CKW::FUZI_26    0.000
3053 H_289441 85.211 17.271 -2.677 H 26 CKW::FUZI_26    0.000
3054 H_289442 83.885 16.990 -3.735 H 26 CKW::FUZI_26    0.000
3055 H_289751 82.948 14.311 -1.665 H 26 CKW::FUZI_26    0.000
3056 H_289752 82.997 14.982 -0.055 H 26 CKW::FUZI_26    0.000
3057 H.z21 82.230 15.274 -3.544 H 26 CKW::FUZI_26    0.000
3058 H.z22 81.451 16.751 -4.065 H 26 CKW::FUZI_26    0.000
3059 H_28934 73.706 17.955 1.739 H 26 CKW::FUZI_26    0.000
3060 H_28933 74.848 19.619 3.073 H 26 CKW::FUZI_26    0.000
3061 H_28932 77.254 19.721 3.087 H 26 CKW::FUZI_26    0.000
3062 H_28930 77.050 15.550 -0.311 H 26 CKW::FUZI_26    0.000
3063 H_28935 74.968 16.385 0.416 H 26 CKW::FUZI_26    0.000
3064 H_28927 79.314 18.893 2.354 H 26 CKW::FUZI_26    0.000
3065 H_28931 79.443 15.657 -0.296 H 26 CKW::FUZI_26    0.000
3066 H.a21 81.378 17.661 1.997 H 26 CKW::FUZI_26    0.000
3067 H.a22 81.427 16.340 0.891 H 26 CKW::FUZI_26    0.000
3068 H.b21 83.177 18.624 2.875 H 26 CKW::FUZI_26    0.000
3069 H.b22 81.973 18.987 4.094 H 26 CKW::FUZI_26    0.000
3070 H_28916 78.307 26.499 1.891 H 26 CKW::FUZI_26    0.000
3071 H_289171 77.758 25.760 -0.441 H 26 CKW::FUZI_26    0.000
3072 H_289172 78.981 24.718 0.273 H 26 CKW::FUZI_26    0.000
3073 H_289173 79.455 25.950 -0.905 H 26 CKW::FUZI_26    0.000
3074 H.d21 81.138 26.564 0.791 H 26 CKW::FUZI_26    0.000
3075 H.d22 80.672 27.843 1.846 H 26 CKW::FUZI_26    0.000
3076 H_289091 81.352 20.241 -0.906 H 26 CKW::FUZI_26    0.000
3077 H_289092 80.260 19.901 0.417 H 26 CKW::FUZI_26    0.000
3078 H_289121 84.117 20.061 -0.223 H 26 CKW::FUZI_26    0.000
3079 H_289122 84.301 19.419 1.396 H 26 CKW::FUZI_26    0.000
3080 H.c 79.696 21.938 1.453 H 26 CKW::FUZI_26    0.000
3081 H_289181 78.628 28.897 1.365 H 26 CKW::FUZI_26    0.000
3082 H_289182 77.522 28.149 0.209 H 26 CKW::FUZI_26    0.000
3083 H_289183 79.197 28.484 -0.262 H 26 CKW::FUZI_26    0.000
3084 H_289011 79.147 23.947 2.360 H 26 CKW::FUZI_26    0.000
3085 H_289012 79.813 23.384 3.878 H 26 CKW::FUZI_26    0.000
3086 H_289041 81.198 24.594 0.452 H 26 CKW::FUZI_26    0.000
3087 H_289042 82.817 24.476 1.179 H 26 CKW::FUZI_26    0.000
3088 H.e 80.124 25.163 5.582 H 26 CKW::FUZI_26    0.000
3089 H_288921 80.605 27.005 7.047 H 26 CKW::FUZI_26    0.000
3090 H_288922 81.987 27.527 6.051 H 26 CKW::FUZI_26    0.000
3091 H_288941 83.963 25.274 5.762 H 26 CKW::FUZI_26    0.000
3092 H_288942 83.141 23.828 6.425 H 26 CKW::FUZI_26    0.000
3093 H_288931 83.144 26.281 7.744 H 26 CKW::FUZI_26    0.000
3094 H_288932 81.817 25.103 7.871 H 26 CKW::FUZI_26    0.000
3095 C.b 80.987 40.766 1.428 C.3 27 CKW::FUZI_27    0.000
3096 C_28893 84.648 32.841 5.299 C.3 27 CKW::FUZI_27    0.000
3097 C_28894 83.299 33.260 4.691 C.3 27 CKW::FUZI_27    0.000
3098 C_28892 85.673 33.709 4.559 C.3 27 CKW::FUZI_27    0.000
3099 N 83.498 34.589 4.100 N.am 27 CKW::FUZI_27    0.000
3100 O 86.630 35.937 2.953 O.2 27 CKW::FUZI_27    0.000
3101 C.e 84.889 35.001 4.273 C.3 27 CKW::FUZI_27    0.000
3102 O 81.407 34.952 3.418 O.2 27 CKW::FUZI_27    0.000
3103 C_28904 82.065 37.063 1.648 C.3 27 CKW::FUZI_27    0.000
3104 C_28901 83.012 37.760 3.723 C.3 27 CKW::FUZI_27    0.000
3105 C.d 83.082 36.573 2.728 C.3 27 CKW::FUZI_27    0.000
3106 C_28918 86.472 35.197 0.026 C.3 27 CKW::FUZI_27    0.000
3107 C.c 82.803 38.991 2.832 C.3 27 CKW::FUZI_27    0.000
3108 O 80.679 38.857 -0.040 O.2 27 CKW::FUZI_27    0.000
3109 O 82.623 40.477 4.675 O.2 27 CKW::FUZI_27    0.000
3110 N 81.976 38.526 1.733 N.am 27 CKW::FUZI_27    0.000
3111 C_28912 81.772 41.657 0.448 C.3 27 CKW::FUZI_27    0.000
3112 C_28909 79.505 41.140 1.116 C.3 27 CKW::FUZI_27    0.000
3113 O 80.361 42.827 5.609 O.co2 27 CKW::FUZI_27    0.000
3114 O 77.461 40.842 -0.881 O.2 27 CKW::FUZI_27    0.000
3115 C_28900 85.430 35.819 3.115 C.2 27 CKW::FUZI_27    0.000
3116 C_28897 82.568 35.315 3.442 C.2 27 CKW::FUZI_27    0.000
3117 N.d 84.515 36.394 2.279 N.am 27 CKW::FUZI_27    0.000
3118 C.d2 84.963 37.054 1.017 C.3 27 CKW::FUZI_27    0.000
3119 C_28917 84.039 35.269 -0.637 C.3 27 CKW::FUZI_27    0.000
3120 C_28916 85.252 36.117 -0.199 C.3 27 CKW::FUZI_27    0.000
3121 C_28908 81.199 39.314 0.963 C.2 27 CKW::FUZI_27    0.000
3122 C_28905 82.275 40.220 3.538 C.2 27 CKW::FUZI_27    0.000
3123 N.b 81.415 41.020 2.846 N.am 27 CKW::FUZI_27    0.000
3124 C.b2 81.042 42.341 3.414 C.3 27 CKW::FUZI_27    0.000
3125 OH 79.079 41.563 4.471 O.co2 27 CKW::FUZI_27    0.000
3126 C_28922 80.075 42.249 4.580 C.2 27 CKW::FUZI_27    0.000
3127 C_28929 75.095 44.153 1.000 C.2 27 CKW::FUZI_27    0.000
3128 C.a2 79.111 43.402 -0.043 C.3 27 CKW::FUZI_27    0.000
3129 C_28931 76.734 43.846 -0.604 C.2 27 CKW::FUZI_27    0.000
3130 C_28927 77.292 43.752 1.625 C.2 27 CKW::FUZI_27    0.000
3131 C_28926 77.660 43.660 0.342 C.2 27 CKW::FUZI_27    0.000
3132 C_28935 73.822 44.389 1.337 C.2 27 CKW::FUZI_27    0.000
3133 C_28930 75.463 44.083 -0.282 C.2 27 CKW::FUZI_27    0.000
3134 C_28928 76.020 43.989 1.963 C.2 27 CKW::FUZI_27    0.000
3135 C_28932 75.658 44.066 3.248 C.2 27 CKW::FUZI_27    0.000
3136 C_28933 74.386 44.302 3.575 C.2 27 CKW::FUZI_27    0.000
3137 C_28934 73.470 44.463 2.621 C.2 27 CKW::FUZI_27    0.000
3138 C.a 79.500 41.899 -0.249 C.3 27 CKW::FUZI_27    0.000
3139 N 80.892 41.851 -0.707 N.am 27 CKW::FUZI_27    0.000
3140 O 82.492 41.914 -2.239 O.2 27 CKW::FUZI_27    0.000
3141 C_28938 80.229 41.685 -3.092 C.3 27 CKW::FUZI_27    0.000
3142 C_28936 78.561 41.220 -1.244 C.2 27 CKW::FUZI_27    0.000
3143 C_28939 81.302 41.839 -1.996 C.2 27 CKW::FUZI_27    0.000
3144 N.z 78.996 41.016 -2.524 N.am 27 CKW::FUZI_27    0.000
3145 C.z2 78.187 40.155 -3.436 C.3 27 CKW::FUZI_27    0.000
3146 C_28975 80.885 40.913 -4.299 C.3 27 CKW::FUZI_27    0.000
3147 C_28944 79.853 43.131 -3.567 C.3 27 CKW::FUZI_27    0.000
3148 C_28945 79.845 43.323 -5.100 C.3 27 CKW::FUZI_27    0.000
3149 NH 81.179 43.015 -5.676 N.2 27 CKW::FUZI_27    0.000
3150 C_28979 75.814 42.517 -5.059 C.2 27 CKW::FUZI_27    0.000
3151 C_28980 76.535 41.866 -4.140 C.2 27 CKW::FUZI_27    0.000
3152 C_28976 77.454 40.535 -5.776 C.2 27 CKW::FUZI_27    0.000
3153 C_28977 76.739 41.173 -6.703 C.2 27 CKW::FUZI_27    0.000
3154 C_28943 77.367 40.879 -4.487 C.2 27 CKW::FUZI_27    0.000
3155 C_28984 74.992 43.511 -4.704 C.2 27 CKW::FUZI_27    0.000
3156 C_28978 75.919 42.169 -6.354 C.2 27 CKW::FUZI_27    0.000
3157 C_28981 75.200 42.820 -7.275 C.2 27 CKW::FUZI_27    0.000
3158 C_28982 74.383 43.810 -6.913 C.2 27 CKW::FUZI_27    0.000
3159 C_28983 74.279 44.155 -5.629 C.2 27 CKW::FUZI_27    0.000
3160 C_28974 81.836 41.779 -5.167 C.3 27 CKW::FUZI_27    0.000
3161 H_289741 82.729 42.064 -4.610 H 27 CKW::FUZI_27    0.000
3162 H_289742 82.160 41.185 -6.026 H 27 CKW::FUZI_27    0.000
3163 H_28983 73.613 44.962 -5.336 H 27 CKW::FUZI_27    0.000
3164 H_28982 73.801 44.337 -7.665 H 27 CKW::FUZI_27    0.000
3165 H_28981 75.274 42.549 -8.326 H 27 CKW::FUZI_27    0.000
3166 H_28984 74.898 43.803 -3.661 H 27 CKW::FUZI_27    0.000
3167 H_28977 76.834 40.876 -7.745 H 27 CKW::FUZI_27    0.000
3168 H_28976 78.117 39.728 -6.081 H 27 CKW::FUZI_27    0.000
3169 H_28980 76.445 42.144 -3.094 H 27 CKW::FUZI_27    0.000
3170 H_289451 79.094 42.683 -5.564 H 27 CKW::FUZI_27    0.000
3171 H_289452 79.596 44.362 -5.329 H 27 CKW::FUZI_27    0.000
3172 H_289441 80.558 43.856 -3.153 H 27 CKW::FUZI_27    0.000
3173 H_289442 78.872 43.415 -3.184 H 27 CKW::FUZI_27    0.000
3174 H_289751 80.139 40.556 -5.005 H 27 CKW::FUZI_27    0.000
3175 H_289752 81.414 40.028 -3.936 H 27 CKW::FUZI_27    0.000
3176 H.z21 77.489 39.560 -2.843 H 27 CKW::FUZI_27    0.000
3177 H.z22 78.835 39.408 -3.898 H 27 CKW::FUZI_27    0.000
3178 H_28934 72.434 44.655 2.889 H 27 CKW::FUZI_27    0.000
3179 H_28933 74.097 44.362 4.622 H 27 CKW::FUZI_27    0.000
3180 H_28932 76.395 43.936 4.038 H 27 CKW::FUZI_27    0.000
3181 H_28930 74.731 44.222 -1.075 H 27 CKW::FUZI_27    0.000
3182 H_28935 73.064 44.525 0.568 H 27 CKW::FUZI_27    0.000
3183 H_28927 78.038 43.635 2.408 H 27 CKW::FUZI_27    0.000
3184 H_28931 77.015 43.802 -1.653 H 27 CKW::FUZI_27    0.000
3185 H.a21 79.329 43.957 -0.956 H 27 CKW::FUZI_27    0.000
3186 H.a22 79.765 43.842 0.714 H 27 CKW::FUZI_27    0.000
3187 H.b21 80.598 42.997 2.664 H 27 CKW::FUZI_27    0.000
3188 H.b22 81.949 42.833 3.777 H 27 CKW::FUZI_27    0.000
3189 H_28916 85.507 36.768 -1.039 H 27 CKW::FUZI_27    0.000
3190 H_289171 84.325 34.573 -1.428 H 27 CKW::FUZI_27    0.000
3191 H_289172 83.251 35.906 -1.042 H 27 CKW::FUZI_27    0.000
3192 H_289173 83.638 34.688 0.198 H 27 CKW::FUZI_27    0.000
3193 H.d21 85.879 37.609 1.237 H 27 CKW::FUZI_27    0.000
3194 H.d22 84.245 37.806 0.694 H 27 CKW::FUZI_27    0.000
3195 H_289091 79.057 41.747 1.892 H 27 CKW::FUZI_27    0.000
3196 H_289092 78.887 40.239 1.091 H 27 CKW::FUZI_27    0.000
3197 H_289121 81.986 42.635 0.885 H 27 CKW::FUZI_27    0.000
3198 H_289122 82.713 41.179 0.161 H 27 CKW::FUZI_27    0.000
3199 H.c 83.765 39.288 2.406 H 27 CKW::FUZI_27    0.000
3200 H_289181 87.342 35.779 0.339 H 27 CKW::FUZI_27    0.000
3201 H_289182 86.734 34.681 -0.901 H 27 CKW::FUZI_27    0.000
3202 H_289183 86.261 34.438 0.782 H 27 CKW::FUZI_27    0.000
3203 H_289011 83.907 37.855 4.342 H 27 CKW::FUZI_27    0.000
3204 H_289012 82.149 37.645 4.385 H 27 CKW::FUZI_27    0.000
3205 H_289041 82.339 36.758 0.644 H 27 CKW::FUZI_27    0.000
3206 H_289042 81.061 36.684 1.848 H 27 CKW::FUZI_27    0.000
3207 H.e 84.928 35.646 5.155 H 27 CKW::FUZI_27    0.000
3208 H_288921 86.570 33.891 5.155 H 27 CKW::FUZI_27    0.000
3209 H_288922 85.956 33.224 3.621 H 27 CKW::FUZI_27    0.000
3210 H_288941 83.014 32.563 3.898 H 27 CKW::FUZI_27    0.000
3211 H_288942 82.519 33.292 5.456 H 27 CKW::FUZI_27    0.000
3212 H_288931 84.843 31.774 5.176 H 27 CKW::FUZI_27    0.000
3213 H_288932 84.660 33.084 6.365 H 27 CKW::FUZI_27    0.000
3214 C.b 78.329 59.980 0.213 C.3 28 CKW::FUZI_28    0.000
3215 C_28893 80.248 63.345 8.905 C.3 28 CKW::FUZI_28    0.000
3216 C_28894 79.043 62.583 8.331 C.3 28 CKW::FUZI_28    0.000
3217 C_28892 81.436 62.815 8.094 C.3 28 CKW::FUZI_28    0.000
3218 N 79.423 62.150 6.981 N.am 28 CKW::FUZI_28    0.000
3219 O 82.759 61.328 6.018 O.2 28 CKW::FUZI_28    0.000
3220 C.e 80.816 62.519 6.718 C.3 28 CKW::FUZI_28    0.000
3221 O 77.494 61.184 6.398 O.2 28 CKW::FUZI_28    0.000
3222 C_28904 78.506 59.919 4.072 C.3 28 CKW::FUZI_28    0.000
3223 C_28901 79.237 62.162 3.817 C.3 28 CKW::FUZI_28    0.000
3224 C.d 79.343 60.993 4.834 C.3 28 CKW::FUZI_28    0.000
3225 C_28918 82.992 60.308 2.940 C.3 28 CKW::FUZI_28    0.000
3226 C.c 79.270 61.481 2.444 C.3 28 CKW::FUZI_28    0.000
3227 O 77.835 58.266 1.878 O.2 28 CKW::FUZI_28    0.000
3228 O 78.526 63.451 1.329 O.2 28 CKW::FUZI_28    0.000
3229 N 78.667 60.175 2.637 N.am 28 CKW::FUZI_28    0.000
3230 C_28912 79.691 59.590 -0.392 C.3 28 CKW::FUZI_28    0.000
3231 C_28909 77.322 59.263 -0.748 C.3 28 CKW::FUZI_28    0.000
3232 O 78.579 64.260 -1.837 O.co2 28 CKW::FUZI_28    0.000
3233 O 76.259 59.304 -3.415 O.2 28 CKW::FUZI_28    0.000
3234 C_28900 81.557 61.472 5.901 C.2 28 CKW::FUZI_28    0.000
3235 C_28897 78.651 61.444 6.126 C.2 28 CKW::FUZI_28    0.000
3236 N.d 80.799 60.674 5.091 N.am 28 CKW::FUZI_28    0.000
3237 C.d2 81.344 59.350 4.666 C.3 28 CKW::FUZI_28    0.000
3238 C_28917 82.491 57.829 3.006 C.3 28 CKW::FUZI_28    0.000
3239 C_28916 81.913 59.241 3.226 C.3 28 CKW::FUZI_28    0.000
3240 C_28908 78.252 59.381 1.630 C.2 28 CKW::FUZI_28    0.000
3241 C_28905 78.647 62.240 1.294 C.2 28 CKW::FUZI_28    0.000
3242 N.b 78.234 61.490 0.229 N.am 28 CKW::FUZI_28    0.000
3243 C.b2 77.853 62.171 -1.039 C.3 28 CKW::FUZI_28    0.000
3244 OH 80.051 62.727 -1.689 O.co2 28 CKW::FUZI_28    0.000
3245 C_28922 78.908 63.121 -1.574 C.2 28 CKW::FUZI_28    0.000
3246 C_28929 80.537 55.237 0.642 C.2 28 CKW::FUZI_28    0.000
3247 C.a2 78.140 57.267 -2.170 C.3 28 CKW::FUZI_28    0.000
3248 C_28931 80.310 56.359 -1.369 C.2 28 CKW::FUZI_28    0.000
3249 C_28927 78.462 56.015 -0.044 C.2 28 CKW::FUZI_28    0.000
3250 C_28926 79.000 56.527 -1.155 C.2 28 CKW::FUZI_28    0.000
3251 C_28935 81.293 54.607 1.547 C.2 28 CKW::FUZI_28    0.000
3252 C_28930 81.074 55.725 -0.479 C.2 28 CKW::FUZI_28    0.000
3253 C_28928 79.217 55.381 0.860 C.2 28 CKW::FUZI_28    0.000
3254 C_28932 78.675 54.893 1.981 C.2 28 CKW::FUZI_28    0.000
3255 C_28933 79.437 54.269 2.880 C.2 28 CKW::FUZI_28    0.000
3256 C_28934 80.745 54.126 2.663 C.2 28 CKW::FUZI_28    0.000
3257 C.a 78.118 58.825 -2.020 C.3 28 CKW::FUZI_28    0.000
3258 N 79.466 59.358 -1.822 N.am 28 CKW::FUZI_28    0.000
3259 O 81.489 59.937 -2.505 O.2 28 CKW::FUZI_28    0.000
3260 C_28938 79.782 59.879 -4.229 C.3 28 CKW::FUZI_28    0.000
3261 C_28936 77.470 59.346 -3.294 C.2 28 CKW::FUZI_28    0.000
3262 C_28939 80.325 59.724 -2.795 C.2 28 CKW::FUZI_28    0.000
3263 N.z 78.271 59.830 -4.291 N.am 28 CKW::FUZI_28    0.000
3264 C.z2 77.632 60.273 -5.568 C.3 28 CKW::FUZI_28    0.000
3265 C_28975 80.391 58.693 -5.045 C.3 28 CKW::FUZI_28    0.000
3266 C_28944 80.344 61.245 -4.776 C.3 28 CKW::FUZI_28    0.000
3267 C_28945 80.866 61.151 -6.229 C.3 28 CKW::FUZI_28    0.000
3268 NH 81.979 60.168 -6.331 N.2 28 CKW::FUZI_28    0.000
3269 C_28979 77.627 58.682 -8.930 C.2 28 CKW::FUZI_28    0.000
3270 C_28980 77.751 59.570 -7.938 C.2 28 CKW::FUZI_28    0.000
3271 C_28976 77.052 57.994 -6.415 C.2 28 CKW::FUZI_28    0.000
3272 C_28977 76.924 57.099 -7.394 C.2 28 CKW::FUZI_28    0.000
3273 C_28943 77.471 59.239 -6.673 C.2 28 CKW::FUZI_28    0.000
3274 C_28984 77.914 59.021 -10.192 C.2 28 CKW::FUZI_28    0.000
3275 C_28978 77.210 57.433 -8.655 C.2 28 CKW::FUZI_28    0.000
3276 C_28981 77.086 56.543 -9.646 C.2 28 CKW::FUZI_28    0.000
3277 C_28982 77.374 56.889 -10.901 C.2 28 CKW::FUZI_28    0.000
3278 C_28983 77.788 58.127 -11.173 C.2 28 CKW::FUZI_28    0.000
3279 C_28974 81.851 58.943 -5.490 C.3 28 CKW::FUZI_28    0.000
3280 H_289741 82.503 59.040 -4.620 H 28 CKW::FUZI_28    0.000
3281 H_289742 82.193 58.085 -6.075 H 28 CKW::FUZI_28    0.000
3282 H_28983 78.022 58.408 -12.197 H 28 CKW::FUZI_28    0.000
3283 H_28982 77.272 56.162 -11.702 H 28 CKW::FUZI_28    0.000
3284 H_28981 76.750 55.529 -9.438 H 28 CKW::FUZI_28    0.000
3285 H_28984 78.252 60.027 -10.429 H 28 CKW::FUZI_28    0.000
3286 H_28977 76.584 56.094 -7.154 H 28 CKW::FUZI_28    0.000
3287 H_28976 76.815 57.691 -5.400 H 28 CKW::FUZI_28    0.000
3288 H_28980 78.087 60.581 -8.163 H 28 CKW::FUZI_28    0.000
3289 H_289451 80.068 60.853 -6.911 H 28 CKW::FUZI_28    0.000
3290 H_289452 81.236 62.131 -6.541 H 28 CKW::FUZI_28    0.000
3291 H_289441 81.183 61.609 -4.181 H 28 CKW::FUZI_28    0.000
3292 H_289442 79.594 62.034 -4.691 H 28 CKW::FUZI_28    0.000
3293 H_289751 79.816 58.506 -5.950 H 28 CKW::FUZI_28    0.000
3294 H_289752 80.343 57.770 -4.463 H 28 CKW::FUZI_28    0.000
3295 H.z21 78.156 61.136 -5.972 H 28 CKW::FUZI_28    0.000
3296 H.z22 76.635 60.658 -5.339 H 28 CKW::FUZI_28    0.000
3297 H_28934 81.365 53.616 3.397 H 28 CKW::FUZI_28    0.000
3298 H_28933 78.992 53.876 3.791 H 28 CKW::FUZI_28    0.000
3299 H_28932 77.610 55.004 2.173 H 28 CKW::FUZI_28    0.000
3300 H_28930 82.138 55.614 -0.675 H 28 CKW::FUZI_28    0.000
3301 H_28935 82.362 54.484 1.383 H 28 CKW::FUZI_28    0.000
3302 H_28927 77.394 56.129 0.133 H 28 CKW::FUZI_28    0.000
3303 H_28931 80.769 56.754 -2.272 H 28 CKW::FUZI_28    0.000
3304 H.a21 78.504 57.013 -3.169 H 28 CKW::FUZI_28    0.000
3305 H.a22 77.116 56.886 -2.134 H 28 CKW::FUZI_28    0.000
3306 H.b21 76.941 62.748 -0.863 H 28 CKW::FUZI_28    0.000
3307 H.b22 77.664 61.477 -1.852 H 28 CKW::FUZI_28    0.000
3308 H_28916 81.112 59.360 2.503 H 28 CKW::FUZI_28    0.000
3309 H_289171 83.327 57.638 3.683 H 28 CKW::FUZI_28    0.000
3310 H_289172 82.846 57.714 1.978 H 28 CKW::FUZI_28    0.000
3311 H_289173 81.724 57.072 3.184 H 28 CKW::FUZI_28    0.000
3312 H.d21 80.605 58.566 4.824 H 28 CKW::FUZI_28    0.000
3313 H.d22 82.158 59.089 5.348 H 28 CKW::FUZI_28    0.000
3314 H_289091 76.480 59.918 -0.979 H 28 CKW::FUZI_28    0.000
3315 H_289092 76.858 58.388 -0.294 H 28 CKW::FUZI_28    0.000
3316 H_289121 80.428 60.383 -0.233 H 28 CKW::FUZI_28    0.000
3317 H_289122 80.067 58.671 0.063 H 28 CKW::FUZI_28    0.000
3318 H.c 80.312 61.331 2.157 H 28 CKW::FUZI_28    0.000
3319 H_289181 83.374 60.200 1.922 H 28 CKW::FUZI_28    0.000
3320 H_289182 83.831 60.208 3.633 H 28 CKW::FUZI_28    0.000
3321 H_289183 82.582 61.315 3.037 H 28 CKW::FUZI_28    0.000
3322 H_289011 80.038 62.897 3.920 H 28 CKW::FUZI_28    0.000
3323 H_289012 78.280 62.678 3.941 H 28 CKW::FUZI_28    0.000
3324 H_289041 78.757 58.891 4.329 H 28 CKW::FUZI_28    0.000
3325 H_289042 77.442 60.052 4.279 H 28 CKW::FUZI_28    0.000
3326 H.e 80.806 63.437 6.123 H 28 CKW::FUZI_28    0.000
3327 H_288921 82.254 63.537 8.034 H 28 CKW::FUZI_28    0.000
3328 H_288922 81.805 61.892 8.551 H 28 CKW::FUZI_28    0.000
3329 H_288941 78.837 61.698 8.939 H 28 CKW::FUZI_28    0.000
3330 H_288942 78.157 63.224 8.296 H 28 CKW::FUZI_28    0.000
3331 H_288931 80.370 63.179 9.977 H 28 CKW::FUZI_28    0.000
3332 H_288932 80.126 64.416 8.722 H 28 CKW::FUZI_28    0.000
3333 C.b 80.741 81.002 -0.846 C.3 29 CKW::FUZI_29    0.000
3334 C_28893 73.076 77.158 -0.115 C.3 29 CKW::FUZI_29    0.000
3335 C_28894 74.388 76.975 -0.902 C.3 29 CKW::FUZI_29    0.000
3336 C_28892 72.829 78.673 -0.133 C.3 29 CKW::FUZI_29    0.000
3337 N 74.678 78.259 -1.559 N.am 29 CKW::FUZI_29    0.000
3338 O 72.753 81.331 -1.421 O.2 29 CKW::FUZI_29    0.000
3339 C.e 73.486 79.084 -1.456 C.3 29 CKW::FUZI_29    0.000
3340 O 76.830 77.884 -1.931 O.2 29 CKW::FUZI_29    0.000
3341 C_28904 76.916 80.638 -0.779 C.3 29 CKW::FUZI_29    0.000
3342 C_28901 77.205 80.419 -3.172 C.3 29 CKW::FUZI_29    0.000
3343 C.d 76.141 80.205 -2.050 C.3 29 CKW::FUZI_29    0.000
3344 C_28918 76.798 83.957 -2.150 C.3 29 CKW::FUZI_29    0.000
3345 C.c 78.572 80.252 -2.480 C.3 29 CKW::FUZI_29    0.000
3346 O 79.045 81.596 0.791 O.2 29 CKW::FUZI_29    0.000
3347 O 79.741 81.252 -4.306 O.2 29 CKW::FUZI_29    0.000
3348 N 78.351 80.601 -1.076 N.am 29 CKW::FUZI_29    0.000
3349 C_28912 81.199 79.522 -0.967 C.3 29 CKW::FUZI_29    0.000
3350 C_28909 81.823 81.568 0.144 C.3 29 CKW::FUZI_29    0.000
3351 O 80.064 84.323 -3.479 O.co2 29 CKW::FUZI_29    0.000
3352 O 84.358 81.787 1.435 O.2 29 CKW::FUZI_29    0.000
3353 C_28900 73.675 80.571 -1.651 C.2 29 CKW::FUZI_29    0.000
3354 C_28897 75.920 78.690 -1.868 C.2 29 CKW::FUZI_29    0.000
3355 N.d 74.865 81.006 -2.153 N.am 29 CKW::FUZI_29    0.000
3356 C.d2 74.901 82.353 -2.799 C.3 29 CKW::FUZI_29    0.000
3357 C_28917 74.409 84.753 -2.135 C.3 29 CKW::FUZI_29    0.000
3358 C_28916 75.331 83.538 -1.892 C.3 29 CKW::FUZI_29    0.000
3359 C_28908 79.327 81.062 -0.262 C.2 29 CKW::FUZI_29    0.000
3360 C_28905 79.704 81.063 -3.105 C.2 29 CKW::FUZI_29    0.000
3361 N.b 80.642 81.565 -2.239 N.am 29 CKW::FUZI_29    0.000
3362 C.b2 81.522 82.720 -2.565 C.3 29 CKW::FUZI_29    0.000
3363 OH 81.668 83.656 -4.719 O.co2 29 CKW::FUZI_29    0.000
3364 C_28922 81.051 83.642 -3.673 C.2 29 CKW::FUZI_29    0.000
3365 C_28929 78.050 78.787 2.812 C.2 29 CKW::FUZI_29    0.000
3366 C.a2 82.041 80.051 2.269 C.3 29 CKW::FUZI_29    0.000
3367 C_28931 79.759 80.297 3.207 C.2 29 CKW::FUZI_29    0.000
3368 C_28927 80.166 78.426 1.936 C.2 29 CKW::FUZI_29    0.000
3369 C_28926 80.605 79.576 2.462 C.2 29 CKW::FUZI_29    0.000
3370 C_28935 76.778 78.400 2.958 C.2 29 CKW::FUZI_29    0.000
3371 C_28930 78.494 79.912 3.378 C.2 29 CKW::FUZI_29    0.000
3372 C_28928 78.898 78.033 2.089 C.2 29 CKW::FUZI_29    0.000
3373 C_28932 78.461 76.901 1.528 C.2 29 CKW::FUZI_29    0.000
3374 C_28933 77.192 76.521 1.680 C.2 29 CKW::FUZI_29    0.000
3375 C_28934 76.351 77.271 2.392 C.2 29 CKW::FUZI_29    0.000
3376 C.a 82.558 80.371 0.820 C.3 29 CKW::FUZI_29    0.000
3377 N 82.368 79.275 -0.118 N.am 29 CKW::FUZI_29    0.000
3378 O 82.813 77.269 -0.931 O.2 29 CKW::FUZI_29    0.000
3379 C_28938 84.646 78.330 0.255 C.3 29 CKW::FUZI_29    0.000
3380 C_28936 84.036 80.695 0.999 C.2 29 CKW::FUZI_29    0.000
3381 C_28939 83.211 78.237 -0.307 C.2 29 CKW::FUZI_29    0.000
3382 N.z 84.974 79.751 0.676 N.am 29 CKW::FUZI_29    0.000
3383 C.z2 86.411 80.139 0.762 C.3 29 CKW::FUZI_29    0.000
3384 C_28975 85.595 77.781 -0.883 C.3 29 CKW::FUZI_29    0.000
3385 C_28944 84.654 77.353 1.484 C.3 29 CKW::FUZI_29    0.000
3386 C_28945 86.002 76.675 1.810 C.3 29 CKW::FUZI_29    0.000
3387 NH 86.561 76.052 0.593 N.2 29 CKW::FUZI_29    0.000
3388 C_28979 89.122 79.324 3.168 C.2 29 CKW::FUZI_29    0.000
3389 C_28980 88.447 79.570 2.041 C.2 29 CKW::FUZI_29    0.000
3390 C_28976 86.526 79.943 3.252 C.2 29 CKW::FUZI_29    0.000
3391 C_28977 87.188 79.701 4.383 C.2 29 CKW::FUZI_29    0.000
3392 C_28943 87.145 79.874 2.067 C.2 29 CKW::FUZI_29    0.000
3393 C_28984 90.423 79.013 3.133 C.2 29 CKW::FUZI_29    0.000
3394 C_28978 88.487 79.390 4.352 C.2 29 CKW::FUZI_29    0.000
3395 C_28981 89.161 79.143 5.481 C.2 29 CKW::FUZI_29    0.000
3396 C_28982 90.457 78.834 5.436 C.2 29 CKW::FUZI_29    0.000
3397 C_28983 91.087 78.769 4.263 C.2 29 CKW::FUZI_29    0.000
3398 C_28974 86.894 77.087 -0.407 C.3 29 CKW::FUZI_29    0.000
3399 H_289741 87.380 76.609 -1.261 H 29 CKW::FUZI_29    0.000
3400 H_289742 87.600 77.792 0.030 H 29 CKW::FUZI_29    0.000
3401 H_28983 92.144 78.517 4.228 H 29 CKW::FUZI_29    0.000
3402 H_28982 91.000 78.634 6.356 H 29 CKW::FUZI_29    0.000
3403 H_28981 88.659 79.193 6.445 H 29 CKW::FUZI_29    0.000
3404 H_28984 90.951 78.956 2.183 H 29 CKW::FUZI_29    0.000
3405 H_28977 86.659 79.760 5.332 H 29 CKW::FUZI_29    0.000
3406 H_28976 85.471 80.191 3.312 H 29 CKW::FUZI_29    0.000
3407 H_28980 88.962 79.517 1.084 H 29 CKW::FUZI_29    0.000
3408 H_289451 86.716 77.390 2.214 H 29 CKW::FUZI_29    0.000
3409 H_289452 85.841 75.899 2.562 H 29 CKW::FUZI_29    0.000
3410 H_289441 83.942 76.542 1.311 H 29 CKW::FUZI_29    0.000
3411 H_289442 84.307 77.869 2.379 H 29 CKW::FUZI_29    0.000
3412 H_289751 85.834 78.580 -1.589 H 29 CKW::FUZI_29    0.000
3413 H_289752 85.091 77.020 -1.481 H 29 CKW::FUZI_29    0.000
3414 H.z21 86.485 81.213 0.576 H 29 CKW::FUZI_29    0.000
3415 H.z22 86.967 79.711 -0.067 H 29 CKW::FUZI_29    0.000
3416 H_28934 75.316 76.960 2.512 H 29 CKW::FUZI_29    0.000
3417 H_28933 76.843 75.600 1.220 H 29 CKW::FUZI_29    0.000
3418 H_28932 79.135 76.280 0.941 H 29 CKW::FUZI_29    0.000
3419 H_28930 77.825 80.530 3.973 H 29 CKW::FUZI_29    0.000
3420 H_28935 76.081 79.001 3.538 H 29 CKW::FUZI_29    0.000
3421 H_28927 80.847 77.800 1.367 H 29 CKW::FUZI_29    0.000
3422 H_28931 80.091 81.225 3.667 H 29 CKW::FUZI_29    0.000
3423 H.a21 82.205 80.938 2.886 H 29 CKW::FUZI_29    0.000
3424 H.a22 82.683 79.287 2.706 H 29 CKW::FUZI_29    0.000
3425 H.b21 82.517 82.350 -2.828 H 29 CKW::FUZI_29    0.000
3426 H.b22 81.597 83.378 -1.697 H 29 CKW::FUZI_29    0.000
3427 H_28916 75.217 83.254 -0.843 H 29 CKW::FUZI_29    0.000
3428 H_289171 74.466 85.083 -3.175 H 29 CKW::FUZI_29    0.000
3429 H_289172 74.696 85.588 -1.492 H 29 CKW::FUZI_29    0.000
3430 H_289173 73.371 84.497 -1.911 H 29 CKW::FUZI_29    0.000
3431 H.d21 73.884 82.560 -3.143 H 29 CKW::FUZI_29    0.000
3432 H.d22 75.471 82.350 -3.726 H 29 CKW::FUZI_29    0.000
3433 H_289091 81.421 82.271 0.876 H 29 CKW::FUZI_29    0.000
3434 H_289092 82.590 82.109 -0.406 H 29 CKW::FUZI_29    0.000
3435 H_289121 80.397 78.837 -0.684 H 29 CKW::FUZI_29    0.000
3436 H_289122 81.483 79.300 -2.000 H 29 CKW::FUZI_29    0.000
3437 H.c 78.881 79.205 -2.522 H 29 CKW::FUZI_29    0.000
3438 H_289181 77.491 83.142 -1.949 H 29 CKW::FUZI_29    0.000
3439 H_289182 77.075 84.793 -1.505 H 29 CKW::FUZI_29    0.000
3440 H_289183 76.934 84.268 -3.189 H 29 CKW::FUZI_29    0.000
3441 H_289011 77.194 81.421 -3.587 H 29 CKW::FUZI_29    0.000
3442 H_289012 77.081 79.717 -4.001 H 29 CKW::FUZI_29    0.000
3443 H_289041 76.654 81.652 -0.481 H 29 CKW::FUZI_29    0.000
3444 H_289042 76.697 79.973 0.062 H 29 CKW::FUZI_29    0.000
3445 H.e 72.828 78.775 -2.274 H 29 CKW::FUZI_29    0.000
3446 H_288921 71.765 78.920 -0.100 H 29 CKW::FUZI_29    0.000
3447 H_288922 73.340 79.150 0.708 H 29 CKW::FUZI_29    0.000
3448 H_288941 75.199 76.725 -0.216 H 29 CKW::FUZI_29    0.000
3449 H_288942 74.284 76.185 -1.651 H 29 CKW::FUZI_29    0.000
3450 H_288931 73.151 76.769 0.904 H 29 CKW::FUZI_29    0.000
3451 H_288932 72.263 76.643 -0.631 H 29 CKW::FUZI_29    0.000
3452 C.b 78.405 99.141 0.294 C.3 30 CKW::FUZI_30    0.000
3453 C_28893 75.785 104.941 6.820 C.3 30 CKW::FUZI_30    0.000
3454 C_28894 76.865 103.959 6.338 C.3 30 CKW::FUZI_30    0.000
3455 C_28892 75.456 105.765 5.569 C.3 30 CKW::FUZI_30    0.000
3456 N 76.720 103.855 4.881 N.am 30 CKW::FUZI_30    0.000
3457 O 75.529 106.484 2.795 O.2 30 CKW::FUZI_30    0.000
3458 C.e 75.668 104.759 4.424 C.3 30 CKW::FUZI_30    0.000
3459 O 78.294 102.318 4.519 O.2 30 CKW::FUZI_30    0.000
3460 C_28904 78.453 102.704 1.772 C.3 30 CKW::FUZI_30    0.000
3461 C_28901 76.122 102.262 2.168 C.3 30 CKW::FUZI_30    0.000
3462 C.d 77.227 103.276 2.553 C.3 30 CKW::FUZI_30    0.000
3463 C_28918 76.985 103.929 -1.123 C.3 30 CKW::FUZI_30    0.000
3464 C.c 76.867 100.932 1.975 C.3 30 CKW::FUZI_30    0.000
3465 O 80.154 100.804 0.571 O.2 30 CKW::FUZI_30    0.000
3466 O 74.929 99.838 1.144 O.2 30 CKW::FUZI_30    0.000
3467 N 78.192 101.287 1.495 N.am 30 CKW::FUZI_30    0.000
3468 C_28912 78.977 98.032 1.194 C.3 30 CKW::FUZI_30    0.000
3469 C_28909 79.062 98.820 -1.084 C.3 30 CKW::FUZI_30    0.000
3470 O 75.408 99.572 -2.005 O.co2 30 CKW::FUZI_30    0.000
3471 O 81.575 98.954 -2.466 O.2 30 CKW::FUZI_30    0.000
3472 C_28900 75.968 105.384 3.075 C.2 30 CKW::FUZI_30    0.000
3473 C_28897 77.471 103.090 4.060 C.2 30 CKW::FUZI_30    0.000
3474 N.d 76.782 104.682 2.229 N.am 30 CKW::FUZI_30    0.000
3475 C.d2 77.340 105.360 1.019 C.3 30 CKW::FUZI_30    0.000
3476 C_28917 75.047 105.295 -0.193 C.3 30 CKW::FUZI_30    0.000
3477 C_28916 76.583 105.194 -0.334 C.3 30 CKW::FUZI_30    0.000
3478 C_28908 79.006 100.467 0.799 C.2 30 CKW::FUZI_30    0.000
3479 C_28905 76.143 99.919 1.115 C.2 30 CKW::FUZI_30    0.000
3480 N.b 76.902 99.118 0.314 N.am 30 CKW::FUZI_30    0.000
3481 C.b2 76.253 98.012 -0.437 C.3 30 CKW::FUZI_30    0.000
3482 OH 75.679 97.567 -2.669 O.co2 30 CKW::FUZI_30    0.000
3483 C_28922 75.727 98.417 -1.803 C.2 30 CKW::FUZI_30    0.000
3484 C_28929 80.574 96.101 -5.566 C.2 30 CKW::FUZI_30    0.000
3485 C.a2 79.999 96.455 -1.406 C.3 30 CKW::FUZI_30    0.000
3486 C_28931 81.392 95.988 -3.405 C.2 30 CKW::FUZI_30    0.000
3487 C_28927 79.190 96.548 -3.760 C.2 30 CKW::FUZI_30    0.000
3488 C_28926 80.200 96.338 -2.910 C.2 30 CKW::FUZI_30    0.000
3489 C_28935 80.750 95.991 -6.887 C.2 30 CKW::FUZI_30    0.000
3490 C_28930 81.581 95.874 -4.719 C.2 30 CKW::FUZI_30    0.000
3491 C_28928 79.365 96.438 -5.081 C.2 30 CKW::FUZI_30    0.000
3492 C_28932 78.352 96.660 -5.926 C.2 30 CKW::FUZI_30    0.000
3493 C_28933 78.537 96.549 -7.242 C.2 30 CKW::FUZI_30    0.000
3494 C_28934 79.735 96.215 -7.722 C.2 30 CKW::FUZI_30    0.000
3495 C.a 80.273 97.873 -0.800 C.3 30 CKW::FUZI_30    0.000
3496 N 80.308 97.738 0.657 N.am 30 CKW::FUZI_30    0.000
3497 O 81.275 97.290 2.597 O.2 30 CKW::FUZI_30    0.000
3498 C_28938 82.794 97.716 0.748 C.3 30 CKW::FUZI_30    0.000
3499 C_28936 81.568 98.468 -1.348 C.2 30 CKW::FUZI_30    0.000
3500 C_28939 81.410 97.546 1.414 C.2 30 CKW::FUZI_30    0.000
3501 N.z 82.691 98.472 -0.564 N.am 30 CKW::FUZI_30    0.000
3502 C.z2 83.921 99.154 -1.077 C.3 30 CKW::FUZI_30    0.000
3503 C_28975 83.337 96.277 0.459 C.3 30 CKW::FUZI_30    0.000
3504 C_28944 83.734 98.392 1.830 C.3 30 CKW::FUZI_30    0.000
3505 C_28945 84.750 97.428 2.491 C.3 30 CKW::FUZI_30    0.000
3506 NH 84.108 96.144 2.865 N.2 30 CKW::FUZI_30    0.000
3507 C_28979 85.976 96.654 -2.896 C.2 30 CKW::FUZI_30    0.000
3508 C_28980 84.966 97.450 -2.531 C.2 30 CKW::FUZI_30    0.000
3509 C_28976 86.234 98.297 -0.805 C.2 30 CKW::FUZI_30    0.000
3510 C_28977 87.249 97.508 -1.159 C.2 30 CKW::FUZI_30    0.000
3511 C_28943 85.083 98.271 -1.483 C.2 30 CKW::FUZI_30    0.000
3512 C_28984 85.853 95.828 -3.941 C.2 30 CKW::FUZI_30    0.000
3513 C_28978 87.129 96.682 -2.202 C.2 30 CKW::FUZI_30    0.000
3514 C_28981 88.140 95.884 -2.565 C.2 30 CKW::FUZI_30    0.000
3515 C_28982 88.008 95.064 -3.608 C.2 30 CKW::FUZI_30    0.000
3516 C_28983 86.866 95.036 -4.295 C.2 30 CKW::FUZI_30    0.000
3517 C_28974 83.493 95.403 1.728 C.3 30 CKW::FUZI_30    0.000
3518 H_289741 82.511 95.041 2.042 H 30 CKW::FUZI_30    0.000
3519 H_289742 84.113 94.534 1.492 H 30 CKW::FUZI_30    0.000
3520 H_28983 86.760 94.367 -5.146 H 30 CKW::FUZI_30    0.000
3521 H_28982 88.832 94.418 -3.899 H 30 CKW::FUZI_30    0.000
3522 H_28981 89.078 95.897 -2.013 H 30 CKW::FUZI_30    0.000
3523 H_28984 84.928 95.795 -4.511 H 30 CKW::FUZI_30    0.000
3524 H_28977 88.175 97.545 -0.588 H 30 CKW::FUZI_30    0.000
3525 H_28976 86.350 98.961 0.048 H 30 CKW::FUZI_30    0.000
3526 H_28980 84.033 97.430 -3.090 H 30 CKW::FUZI_30    0.000
3527 H_289451 85.572 97.224 1.799 H 30 CKW::FUZI_30    0.000
3528 H_289452 85.167 97.896 3.386 H 30 CKW::FUZI_30    0.000
3529 H_289441 83.138 98.860 2.617 H 30 CKW::FUZI_30    0.000
3530 H_289442 84.320 99.218 1.447 H 30 CKW::FUZI_30    0.000
3531 H_289751 84.317 96.329 -0.012 H 30 CKW::FUZI_30    0.000
3532 H_289752 82.698 95.756 -0.251 H 30 CKW::FUZI_30    0.000
3533 H.z21 84.249 99.921 -0.377 H 30 CKW::FUZI_30    0.000
3534 H.z22 83.669 99.739 -1.964 H 30 CKW::FUZI_30    0.000
3535 H_28934 79.883 96.125 -8.795 H 30 CKW::FUZI_30    0.000
3536 H_28933 77.709 96.731 -7.923 H 30 CKW::FUZI_30    0.000
3537 H_28932 77.368 96.933 -5.548 H 30 CKW::FUZI_30    0.000
3538 H_28930 82.563 95.594 -5.094 H 30 CKW::FUZI_30    0.000
3539 H_28935 81.722 95.718 -7.293 H 30 CKW::FUZI_30    0.000
3540 H_28927 78.209 96.810 -3.372 H 30 CKW::FUZI_30    0.000
3541 H_28931 82.225 95.797 -2.732 H 30 CKW::FUZI_30    0.000
3542 H.a21 78.983 96.142 -1.152 H 30 CKW::FUZI_30    0.000
3543 H.a22 80.639 95.721 -0.916 H 30 CKW::FUZI_30    0.000
3544 H.b21 75.402 97.628 0.132 H 30 CKW::FUZI_30    0.000
3545 H.b22 76.948 97.182 -0.578 H 30 CKW::FUZI_30    0.000
3546 H_28916 76.893 106.038 -0.955 H 30 CKW::FUZI_30    0.000
3547 H_289171 74.647 104.491 0.427 H 30 CKW::FUZI_30    0.000
3548 H_289172 74.571 105.235 -1.174 H 30 CKW::FUZI_30    0.000
3549 H_289173 74.765 106.251 0.253 H 30 CKW::FUZI_30    0.000
3550 H.d21 78.396 105.121 0.891 H 30 CKW::FUZI_30    0.000
3551 H.d22 77.346 106.432 1.229 H 30 CKW::FUZI_30    0.000
3552 H_289091 79.363 99.744 -1.584 H 30 CKW::FUZI_30    0.000
3553 H_289092 78.376 98.349 -1.780 H 30 CKW::FUZI_30    0.000
3554 H_289121 79.026 98.365 2.234 H 30 CKW::FUZI_30    0.000
3555 H_289122 78.372 97.123 1.136 H 30 CKW::FUZI_30    0.000
3556 H.c 76.999 100.454 2.949 H 30 CKW::FUZI_30    0.000
3557 H_289181 76.694 103.014 -0.610 H 30 CKW::FUZI_30    0.000
3558 H_289182 78.065 103.907 -1.285 H 30 CKW::FUZI_30    0.000
3559 H_289183 76.505 103.927 -2.104 H 30 CKW::FUZI_30    0.000
3560 H_289011 75.638 102.552 1.236 H 30 CKW::FUZI_30    0.000
3561 H_289012 75.343 102.176 2.930 H 30 CKW::FUZI_30    0.000
3562 H_289041 78.593 103.167 0.801 H 30 CKW::FUZI_30    0.000
3563 H_289042 79.381 102.821 2.339 H 30 CKW::FUZI_30    0.000
3564 H.e 74.759 104.164 4.298 H 30 CKW::FUZI_30    0.000
3565 H_288921 74.439 106.163 5.590 H 30 CKW::FUZI_30    0.000
3566 H_288922 76.165 106.593 5.482 H 30 CKW::FUZI_30    0.000
3567 H_288941 77.859 104.354 6.565 H 30 CKW::FUZI_30    0.000
3568 H_288942 76.738 102.980 6.809 H 30 CKW::FUZI_30    0.000
3569 H_288931 76.132 105.564 7.647 H 30 CKW::FUZI_30    0.000
3570 H_288932 74.899 104.386 7.138 H 30 CKW::FUZI_30    0.000
3571 C.b 99.906 1.280 -0.692 C.3 31 CKW::FUZI_31    0.000
3572 C_28893 92.119 -2.077 2.262 C.3 31 CKW::FUZI_31    0.000
3573 C_28894 93.562 -1.614 2.521 C.3 31 CKW::FUZI_31    0.000
3574 C_28892 91.557 -1.015 1.308 C.3 31 CKW::FUZI_31    0.000
3575 N 93.925 -0.722 1.412 N.am 31 CKW::FUZI_31    0.000
3576 O 91.628 1.141 -0.625 O.2 31 CKW::FUZI_31    0.000
3577 C.e 92.795 -0.589 0.501 C.3 31 CKW::FUZI_31    0.000
3578 O 96.028 -0.319 2.018 O.2 31 CKW::FUZI_31    0.000
3579 C_28904 96.313 1.984 0.502 C.3 31 CKW::FUZI_31    0.000
3580 C_28901 95.756 0.307 -1.108 C.3 31 CKW::FUZI_31    0.000
3581 C.d 95.167 0.984 0.151 C.3 31 CKW::FUZI_31    0.000
3582 C_28918 91.826 3.973 0.527 C.3 31 CKW::FUZI_31    0.000
3583 C.c 97.269 0.252 -0.844 C.3 31 CKW::FUZI_31    0.000
3584 O 98.971 2.940 0.820 O.2 31 CKW::FUZI_31    0.000
3585 O 97.726 -0.320 -3.117 O.2 31 CKW::FUZI_31    0.000
3586 N 97.564 1.420 -0.017 N.am 31 CKW::FUZI_31    0.000
3587 C_28912 101.202 2.140 -0.754 C.3 31 CKW::FUZI_31    0.000
3588 C_28909 100.433 0.099 0.161 C.3 31 CKW::FUZI_31    0.000
3589 O 98.456 2.690 -3.996 O.co2 31 CKW::FUZI_31    0.000
3590 O 102.218 -1.442 1.757 O.2 31 CKW::FUZI_31    0.000
3591 C_28900 92.686 0.777 -0.147 C.2 31 CKW::FUZI_31    0.000
3592 C_28897 95.101 -0.076 1.267 C.2 31 CKW::FUZI_31    0.000
3593 N.d 93.808 1.557 -0.164 N.am 31 CKW::FUZI_31    0.000
3594 C.d2 93.762 2.905 -0.800 C.3 31 CKW::FUZI_31    0.000
3595 C_28917 94.185 4.283 1.367 C.3 31 CKW::FUZI_31    0.000
3596 C_28916 93.309 4.087 0.110 C.3 31 CKW::FUZI_31    0.000
3597 C_28908 98.795 1.964 0.115 C.2 31 CKW::FUZI_31    0.000
3598 C_28905 98.134 0.189 -2.090 C.2 31 CKW::FUZI_31    0.000
3599 N.b 99.357 0.789 -2.008 N.am 31 CKW::FUZI_31    0.000
3600 C.b2 100.081 1.149 -3.255 C.3 31 CKW::FUZI_31    0.000
3601 OH 100.491 3.313 -4.078 O.co2 31 CKW::FUZI_31    0.000
3602 C_28922 99.641 2.483 -3.827 C.2 31 CKW::FUZI_31    0.000
3603 C_28929 100.743 -5.007 -0.761 C.2 31 CKW::FUZI_31    0.000
3604 C.a2 102.148 -1.080 -1.372 C.3 31 CKW::FUZI_31    0.000
3605 C_28931 102.418 -3.420 -0.572 C.2 31 CKW::FUZI_31    0.000
3606 C_28927 100.411 -2.850 -1.539 C.2 31 CKW::FUZI_31    0.000
3607 C_28926 101.637 -2.495 -1.140 C.2 31 CKW::FUZI_31    0.000
3608 C_28935 100.286 -6.250 -0.570 C.2 31 CKW::FUZI_31    0.000
3609 C_28930 101.976 -4.663 -0.379 C.2 31 CKW::FUZI_31    0.000
3610 C_28928 99.953 -4.091 -1.349 C.2 31 CKW::FUZI_31    0.000
3611 C_28932 98.720 -4.431 -1.738 C.2 31 CKW::FUZI_31    0.000
3612 C_28933 98.272 -5.671 -1.542 C.2 31 CKW::FUZI_31    0.000
3613 C_28934 99.054 -6.580 -0.959 C.2 31 CKW::FUZI_31    0.000
3614 C.a 101.934 -0.087 -0.180 C.3 31 CKW::FUZI_31    0.000
3615 N 102.370 1.261 -0.558 N.am 31 CKW::FUZI_31    0.000
3616 O 103.884 2.823 -0.933 O.2 31 CKW::FUZI_31    0.000
3617 C_28938 104.637 0.961 0.432 C.3 31 CKW::FUZI_31    0.000
3618 C_28936 102.711 -0.609 1.017 C.2 31 CKW::FUZI_31    0.000
3619 C_28939 103.624 1.749 -0.425 C.2 31 CKW::FUZI_31    0.000
3620 N.z 103.966 -0.123 1.239 N.am 31 CKW::FUZI_31    0.000
3621 C.z2 104.793 -0.764 2.297 C.3 31 CKW::FUZI_31    0.000
3622 C_28975 105.350 2.005 1.376 C.3 31 CKW::FUZI_31    0.000
3623 C_28944 105.689 0.313 -0.526 C.3 31 CKW::FUZI_31    0.000
3624 C_28945 106.662 1.328 -1.165 C.3 31 CKW::FUZI_31    0.000
3625 NH 107.348 2.096 -0.100 N.2 31 CKW::FUZI_31    0.000
3626 C_28979 103.382 0.858 5.363 C.2 31 CKW::FUZI_31    0.000
3627 C_28980 103.643 0.580 4.081 C.2 31 CKW::FUZI_31    0.000
3628 C_28976 105.039 -1.133 4.720 C.2 31 CKW::FUZI_31    0.000
3629 C_28977 104.788 -0.867 6.001 C.2 31 CKW::FUZI_31    0.000
3630 C_28943 104.472 -0.417 3.744 C.2 31 CKW::FUZI_31    0.000
3631 C_28984 102.552 1.854 5.691 C.2 31 CKW::FUZI_31    0.000
3632 C_28978 103.960 0.127 6.333 C.2 31 CKW::FUZI_31    0.000
3633 C_28981 103.699 0.404 7.616 C.2 31 CKW::FUZI_31    0.000
3634 C_28982 102.870 1.399 7.933 C.2 31 CKW::FUZI_31    0.000
3635 C_28983 102.298 2.124 6.972 C.2 31 CKW::FUZI_31    0.000
3636 C_28974 106.395 2.915 0.685 C.3 31 CKW::FUZI_31    0.000
3637 H_289741 105.919 3.647 0.031 H 31 CKW::FUZI_31    0.000
3638 H_289742 106.951 3.463 1.450 H 31 CKW::FUZI_31    0.000
3639 H_28983 101.622 2.935 7.232 H 31 CKW::FUZI_31    0.000
3640 H_28982 102.662 1.620 8.977 H 31 CKW::FUZI_31    0.000
3641 H_28981 104.160 -0.179 8.411 H 31 CKW::FUZI_31    0.000
3642 H_28984 102.077 2.454 4.917 H 31 CKW::FUZI_31    0.000
3643 H_28977 105.265 -1.468 6.773 H 31 CKW::FUZI_31    0.000
3644 H_28976 105.716 -1.947 4.470 H 31 CKW::FUZI_31    0.000
3645 H_28980 103.168 1.180 3.308 H 31 CKW::FUZI_31    0.000
3646 H_289451 107.411 0.791 -1.753 H 31 CKW::FUZI_31    0.000
3647 H_289452 106.127 2.011 -1.829 H 31 CKW::FUZI_31    0.000
3648 H_289441 105.187 -0.232 -1.324 H 31 CKW::FUZI_31    0.000
3649 H_289442 106.292 -0.421 0.012 H 31 CKW::FUZI_31    0.000
3650 H_289751 105.894 1.515 2.182 H 31 CKW::FUZI_31    0.000
3651 H_289752 104.598 2.631 1.862 H 31 CKW::FUZI_31    0.000
3652 H.z21 105.852 -0.570 2.121 H 31 CKW::FUZI_31    0.000
3653 H.z22 104.681 -1.846 2.179 H 31 CKW::FUZI_31    0.000
3654 H_28934 98.687 -7.591 -0.802 H 31 CKW::FUZI_31    0.000
3655 H_28933 97.268 -5.942 -1.859 H 31 CKW::FUZI_31    0.000
3656 H_28932 98.070 -3.699 -2.214 H 31 CKW::FUZI_31    0.000
3657 H_28930 102.631 -5.393 0.093 H 31 CKW::FUZI_31    0.000
3658 H_28935 100.914 -7.002 -0.096 H 31 CKW::FUZI_31    0.000
3659 H_28927 99.774 -2.112 -2.021 H 31 CKW::FUZI_31    0.000
3660 H_28931 103.427 -3.162 -0.257 H 31 CKW::FUZI_31    0.000
3661 H.a21 103.211 -1.134 -1.602 H 31 CKW::FUZI_31    0.000
3662 H.a22 101.689 -0.695 -2.277 H 31 CKW::FUZI_31    0.000
3663 H.b21 99.893 0.395 -4.024 H 31 CKW::FUZI_31    0.000
3664 H.b22 101.160 1.188 -3.102 H 31 CKW::FUZI_31    0.000
3665 H_28916 93.397 4.997 -0.489 H 31 CKW::FUZI_31    0.000
3666 H_289171 95.208 4.542 1.090 H 31 CKW::FUZI_31    0.000
3667 H_289172 94.197 3.382 1.984 H 31 CKW::FUZI_31    0.000
3668 H_289173 93.798 5.104 1.975 H 31 CKW::FUZI_31    0.000
3669 H.d21 93.069 2.856 -1.644 H 31 CKW::FUZI_31    0.000
3670 H.d22 94.724 3.145 -1.254 H 31 CKW::FUZI_31    0.000
3671 H_289091 99.844 -0.809 0.040 H 31 CKW::FUZI_31    0.000
3672 H_289092 100.356 0.378 1.216 H 31 CKW::FUZI_31    0.000
3673 H_289121 101.293 2.721 -1.671 H 31 CKW::FUZI_31    0.000
3674 H_289122 101.224 2.851 0.076 H 31 CKW::FUZI_31    0.000
3675 H.c 97.502 -0.640 -0.256 H 31 CKW::FUZI_31    0.000
3676 H_289181 91.187 3.846 -0.349 H 31 CKW::FUZI_31    0.000
3677 H_289182 91.506 4.880 1.045 H 31 CKW::FUZI_31    0.000
3678 H_289183 91.671 3.129 1.203 H 31 CKW::FUZI_31    0.000
3679 H_289011 95.560 0.926 -1.989 H 31 CKW::FUZI_31    0.000
3680 H_289012 95.338 -0.687 -1.287 H 31 CKW::FUZI_31    0.000
3681 H_289041 96.202 2.948 0.011 H 31 CKW::FUZI_31    0.000
3682 H_289042 96.384 2.150 1.580 H 31 CKW::FUZI_31    0.000
3683 H.e 92.953 -1.303 -0.313 H 31 CKW::FUZI_31    0.000
3684 H_288921 90.761 -1.409 0.672 H 31 CKW::FUZI_31    0.000
3685 H_288922 91.173 -0.170 1.884 H 31 CKW::FUZI_31    0.000
3686 H_288941 93.612 -1.050 3.456 H 31 CKW::FUZI_31    0.000
3687 H_288942 94.243 -2.469 2.566 H 31 CKW::FUZI_31    0.000
3688 H_288931 91.538 -2.154 3.184 H 31 CKW::FUZI_31    0.000
3689 H_288932 92.129 -3.050 1.765 H 31 CKW::FUZI_31    0.000
3690 C.b 98.850 20.533 -1.986 C.3 32 CKW::FUZI_32    0.000
3691 C_28893 89.871 20.609 -2.890 C.3 32 CKW::FUZI_32    0.000
3692 C_28894 91.099 21.077 -2.093 C.3 32 CKW::FUZI_32    0.000
3693 C_28892 90.255 20.883 -4.348 C.3 32 CKW::FUZI_32    0.000
3694 N 92.237 21.053 -3.020 N.am 32 CKW::FUZI_32    0.000
3695 O 91.969 21.617 -6.525 O.2 32 CKW::FUZI_32    0.000
3696 C.e 91.779 20.669 -4.353 C.3 32 CKW::FUZI_32    0.000
3697 O 93.827 21.653 -1.578 O.2 32 CKW::FUZI_32    0.000
3698 C_28904 95.745 22.261 -3.492 C.3 32 CKW::FUZI_32    0.000
3699 C_28901 95.095 20.010 -4.020 C.3 32 CKW::FUZI_32    0.000
3700 C.d 94.491 21.431 -3.909 C.3 32 CKW::FUZI_32    0.000
3701 C_28918 96.846 21.952 -6.783 C.3 32 CKW::FUZI_32    0.000
3702 C.c 96.207 19.979 -2.959 C.3 32 CKW::FUZI_32    0.000
3703 O 98.201 22.862 -2.248 O.2 32 CKW::FUZI_32    0.000
3704 O 97.056 17.915 -3.781 O.2 32 CKW::FUZI_32    0.000
3705 N 96.698 21.344 -2.856 N.am 32 CKW::FUZI_32    0.000
3706 C_28912 100.321 21.020 -2.083 C.3 32 CKW::FUZI_32    0.000
3707 C_28909 98.696 20.241 -0.469 C.3 32 CKW::FUZI_32    0.000
3708 O 98.725 16.889 -1.288 O.co2 32 CKW::FUZI_32    0.000
3709 O 99.532 18.425 1.596 O.2 32 CKW::FUZI_32    0.000
3710 C_28900 92.519 21.391 -5.463 C.2 32 CKW::FUZI_32    0.000
3711 C_28897 93.510 21.390 -2.724 C.2 32 CKW::FUZI_32    0.000
3712 N.d 93.794 21.808 -5.194 N.am 32 CKW::FUZI_32    0.000
3713 C.d2 94.465 22.762 -6.129 C.3 32 CKW::FUZI_32    0.000
3714 C_28917 94.816 20.905 -7.908 C.3 32 CKW::FUZI_32    0.000
3715 C_28916 95.388 22.176 -7.241 C.3 32 CKW::FUZI_32    0.000
3716 C_28908 97.904 21.687 -2.358 C.2 32 CKW::FUZI_32    0.000
3717 C_28905 97.300 18.962 -3.209 C.2 32 CKW::FUZI_32    0.000
3718 N.b 98.555 19.276 -2.773 N.am 32 CKW::FUZI_32    0.000
3719 C.b2 99.655 18.287 -2.963 C.3 32 CKW::FUZI_32    0.000
3720 OH 100.783 16.624 -1.758 O.co2 32 CKW::FUZI_32    0.000
3721 C_28922 99.719 17.187 -1.919 C.2 32 CKW::FUZI_32    0.000
3722 C_28929 99.956 25.315 -0.209 C.2 32 CKW::FUZI_32    0.000
3723 C.a2 100.238 21.367 1.240 C.3 32 CKW::FUZI_32    0.000
3724 C_28931 98.982 23.466 0.787 C.2 32 CKW::FUZI_32    0.000
3725 C_28927 101.203 23.401 0.188 C.2 32 CKW::FUZI_32    0.000
3726 C_28926 100.133 22.789 0.708 C.2 32 CKW::FUZI_32    0.000
3727 C_28935 99.876 26.565 -0.677 C.2 32 CKW::FUZI_32    0.000
3728 C_28930 98.891 24.715 0.330 C.2 32 CKW::FUZI_32    0.000
3729 C_28928 101.124 24.651 -0.279 C.2 32 CKW::FUZI_32    0.000
3730 C_28932 102.194 25.248 -0.815 C.2 32 CKW::FUZI_32    0.000
3731 C_28933 102.105 26.495 -1.280 C.2 32 CKW::FUZI_32    0.000
3732 C_28934 100.948 27.153 -1.211 C.2 32 CKW::FUZI_32    0.000
3733 C.a 100.119 20.233 0.168 C.3 32 CKW::FUZI_32    0.000
3734 N 101.043 20.425 -0.953 N.am 32 CKW::FUZI_32    0.000
3735 O 103.023 20.340 -1.937 O.2 32 CKW::FUZI_32    0.000
3736 C_28938 102.806 19.033 0.099 C.3 32 CKW::FUZI_32    0.000
3737 C_28936 100.398 18.925 0.900 C.2 32 CKW::FUZI_32    0.000
3738 C_28939 102.320 19.988 -1.009 C.2 32 CKW::FUZI_32    0.000
3739 N.z 101.630 18.345 0.763 N.am 32 CKW::FUZI_32    0.000
3740 C.z2 101.873 17.010 1.384 C.3 32 CKW::FUZI_32    0.000
3741 C_28975 103.556 19.916 1.156 C.3 32 CKW::FUZI_32    0.000
3742 C_28944 103.834 18.029 -0.552 C.3 32 CKW::FUZI_32    0.000
3743 C_28945 105.216 18.640 -0.907 C.3 32 CKW::FUZI_32    0.000
3744 NH 105.796 19.453 0.198 N.2 32 CKW::FUZI_32    0.000
3745 C_28979 104.541 16.214 3.852 C.2 32 CKW::FUZI_32    0.000
3746 C_28980 103.793 16.224 2.743 C.2 32 CKW::FUZI_32    0.000
3747 C_28976 102.372 17.764 3.695 C.2 32 CKW::FUZI_32    0.000
3748 C_28977 103.108 17.763 4.807 C.2 32 CKW::FUZI_32    0.000
3749 C_28943 102.710 17.003 2.650 C.2 32 CKW::FUZI_32    0.000
3750 C_28984 105.629 15.441 3.936 C.2 32 CKW::FUZI_32    0.000
3751 C_28978 104.196 16.993 4.894 C.2 32 CKW::FUZI_32    0.000
3752 C_28981 104.945 16.986 6.002 C.2 32 CKW::FUZI_32    0.000
3753 C_28982 106.028 16.212 6.077 C.2 32 CKW::FUZI_32    0.000
3754 C_28983 106.370 15.440 5.045 C.2 32 CKW::FUZI_32    0.000
3755 C_28974 105.005 19.475 1.453 C.3 32 CKW::FUZI_32    0.000
3756 H_289741 105.464 20.184 2.148 H 32 CKW::FUZI_32    0.000
3757 H_289742 105.021 18.485 1.912 H 32 CKW::FUZI_32    0.000
3758 H_28983 107.253 14.810 5.107 H 32 CKW::FUZI_32    0.000
3759 H_28982 106.633 16.210 6.980 H 32 CKW::FUZI_32    0.000
3760 H_28981 104.677 17.611 6.852 H 32 CKW::FUZI_32    0.000
3761 H_28984 105.921 14.806 3.101 H 32 CKW::FUZI_32    0.000
3762 H_28977 102.813 18.396 5.640 H 32 CKW::FUZI_32    0.000
3763 H_28976 101.491 18.398 3.646 H 32 CKW::FUZI_32    0.000
3764 H_28980 104.072 15.593 1.901 H 32 CKW::FUZI_32    0.000
3765 H_289451 105.908 17.825 -1.134 H 32 CKW::FUZI_32    0.000
3766 H_289452 105.147 19.264 -1.799 H 32 CKW::FUZI_32    0.000
3767 H_289441 103.397 17.569 -1.441 H 32 CKW::FUZI_32    0.000
3768 H_289442 104.076 17.215 0.127 H 32 CKW::FUZI_32    0.000
3769 H_289751 103.009 19.932 2.100 H 32 CKW::FUZI_32    0.000
3770 H_289752 103.593 20.956 0.821 H 32 CKW::FUZI_32    0.000
3771 H.z21 102.294 16.334 0.639 H 32 CKW::FUZI_32    0.000
3772 H.z22 100.916 16.548 1.635 H 32 CKW::FUZI_32    0.000
3773 H_28934 100.877 28.169 -1.590 H 32 CKW::FUZI_32    0.000
3774 H_28933 102.978 26.976 -1.715 H 32 CKW::FUZI_32    0.000
3775 H_28932 103.145 24.724 -0.878 H 32 CKW::FUZI_32    0.000
3776 H_28930 97.940 25.239 0.400 H 32 CKW::FUZI_32    0.000
3777 H_28935 98.938 27.114 -0.627 H 32 CKW::FUZI_32    0.000
3778 H_28927 102.148 22.865 0.134 H 32 CKW::FUZI_32    0.000
3779 H_28931 98.103 22.999 1.223 H 32 CKW::FUZI_32    0.000
3780 H.a21 101.190 21.272 1.762 H 32 CKW::FUZI_32    0.000
3781 H.a22 99.475 21.210 2.006 H 32 CKW::FUZI_32    0.000
3782 H.b21 100.639 18.749 -3.000 H 32 CKW::FUZI_32    0.000
3783 H.b22 99.518 17.786 -3.926 H 32 CKW::FUZI_32    0.000
3784 H_28916 95.440 22.940 -8.021 H 32 CKW::FUZI_32    0.000
3785 H_289171 95.472 20.572 -8.715 H 32 CKW::FUZI_32    0.000
3786 H_289172 93.835 21.107 -8.341 H 32 CKW::FUZI_32    0.000
3787 H_289173 94.719 20.086 -7.193 H 32 CKW::FUZI_32    0.000
3788 H.d21 94.991 23.543 -5.578 H 32 CKW::FUZI_32    0.000
3789 H.d22 93.674 23.306 -6.651 H 32 CKW::FUZI_32    0.000
3790 H_289091 98.176 19.293 -0.321 H 32 CKW::FUZI_32    0.000
3791 H_289092 98.061 20.991 0.006 H 32 CKW::FUZI_32    0.000
3792 H_289121 100.768 20.761 -3.045 H 32 CKW::FUZI_32    0.000
3793 H_289122 100.401 22.102 -1.975 H 32 CKW::FUZI_32    0.000
3794 H.c 95.771 19.721 -1.990 H 32 CKW::FUZI_32    0.000
3795 H_289181 97.465 21.647 -7.630 H 32 CKW::FUZI_32    0.000
3796 H_289182 96.923 21.179 -6.021 H 32 CKW::FUZI_32    0.000
3797 H_289183 97.268 22.877 -6.383 H 32 CKW::FUZI_32    0.000
3798 H_289011 95.523 19.851 -5.009 H 32 CKW::FUZI_32    0.000
3799 H_289012 94.358 19.222 -3.848 H 32 CKW::FUZI_32    0.000
3800 H_289041 96.273 22.685 -4.341 H 32 CKW::FUZI_32    0.000
3801 H_289042 95.480 23.076 -2.813 H 32 CKW::FUZI_32    0.000
3802 H.e 91.991 19.603 -4.476 H 32 CKW::FUZI_32    0.000
3803 H_288921 89.740 20.217 -5.045 H 32 CKW::FUZI_32    0.000
3804 H_288922 90.016 21.920 -4.598 H 32 CKW::FUZI_32    0.000
3805 H_288941 90.950 22.104 -1.746 H 32 CKW::FUZI_32    0.000
3806 H_288942 91.283 20.420 -1.239 H 32 CKW::FUZI_32    0.000
3807 H_288931 88.960 21.135 -2.595 H 32 CKW::FUZI_32    0.000
3808 H_288932 89.725 19.535 -2.743 H 32 CKW::FUZI_32    0.000
@<TRIPOS>BOND
1 3 2 1 
2 4 2 1 
3 5 3 1 
4 7 5 1 
5 7 4 1 
6 11 10 1 
7 11 9 1 
8 11 23 1 
9 12 26 1 
10 12 106 1 
11 12 107 1 
12 12 108 1 
13 13 10 1 
14 13 105 1 
15 13 28 1 
16 14 27 2 
17 15 28 2 
18 16 9 1 
19 16 13 1 
20 16 27 1 
21 17 45 1 
22 17 1 1 
23 17 103 1 
24 17 104 1 
25 18 1 1 
26 18 101 1 
27 18 102 1 
28 18 44 1 
29 19 32 2 
30 20 48 2 
31 21 23 1 
32 21 7 1 
33 21 6 2 
34 22 11 1 
35 22 5 1 
36 22 8 2 
37 24 23 1 
38 24 99 1 
39 24 100 1 
40 25 96 1 
41 25 97 1 
42 25 98 1 
43 26 25 1 
44 26 24 1 
45 26 95 1 
46 27 1 1 
47 29 1 1 
48 29 28 1 
49 30 29 1 
50 30 93 1 
51 30 94 1 
52 32 31 1 
53 32 30 1 
54 33 40 2 
55 33 38 1 
56 33 39 1 
57 34 37 1 
58 34 91 1 
59 34 92 1 
60 34 44 1 
61 35 90 1 
62 36 89 1 
63 37 35 1 
64 37 36 2 
65 38 88 1 
66 39 35 2 
67 39 87 1 
68 40 36 1 
69 41 40 1 
70 41 86 1 
71 42 41 2 
72 42 85 1 
73 43 38 2 
74 43 42 1 
75 43 84 1 
76 44 48 1 
77 45 44 1 
78 45 49 1 
79 46 49 2 
80 49 47 1 
81 50 48 1 
82 50 47 1 
83 51 50 1 
84 51 82 1 
85 51 83 1 
86 51 60 1 
87 52 66 1 
88 52 47 1 
89 52 80 1 
90 52 81 1 
91 53 47 1 
92 53 78 1 
93 53 79 1 
94 54 53 1 
95 54 76 1 
96 54 77 1 
97 55 54 1 
98 55 66 1 
99 56 62 1 
100 56 61 1 
101 57 56 2 
102 57 75 1 
103 57 60 1 
104 58 60 2 
105 58 59 1 
106 58 74 1 
107 59 73 1 
108 61 72 1 
109 62 59 2 
110 63 62 1 
111 63 71 1 
112 64 63 2 
113 65 61 2 
114 65 64 1 
115 67 66 1 
116 68 66 1 
117 69 65 1 
118 70 64 1 
119 109 10 1 
120 110 10 1 
121 111 9 1 
122 112 9 1 
123 113 7 1 
124 114 4 1 
125 115 4 1 
126 116 3 1 
127 117 3 1 
128 118 2 1 
129 119 2 1 
130 120 148 1 
131 120 136 1 
132 120 137 1 
133 120 146 1 
134 121 237 1 
135 121 238 1 
136 122 121 1 
137 122 235 1 
138 122 236 1 
139 123 121 1 
140 123 233 1 
141 123 234 1 
142 124 122 1 
143 124 141 1 
144 125 140 2 
145 126 124 1 
146 126 123 1 
147 126 232 1 
148 126 140 1 
149 127 141 2 
150 128 135 1 
151 128 230 1 
152 128 231 1 
153 129 132 1 
154 129 228 1 
155 129 229 1 
156 130 129 1 
157 130 141 1 
158 130 128 1 
159 130 142 1 
160 131 145 1 
161 131 225 1 
162 131 226 1 
163 131 227 1 
164 132 224 1 
165 132 147 1 
166 133 146 2 
167 134 147 2 
168 135 132 1 
169 135 146 1 
170 136 164 1 
171 136 222 1 
172 136 223 1 
173 137 220 1 
174 137 221 1 
175 137 163 1 
176 138 151 2 
177 139 167 2 
178 142 140 1 
179 142 143 1 
180 143 218 1 
181 143 219 1 
182 144 215 1 
183 144 216 1 
184 144 217 1 
185 145 144 1 
186 145 143 1 
187 145 214 1 
188 148 147 1 
189 149 148 1 
190 149 212 1 
191 149 213 1 
192 151 150 1 
193 151 149 1 
194 152 159 2 
195 152 157 1 
196 152 158 1 
197 153 156 1 
198 153 210 1 
199 153 211 1 
200 153 163 1 
201 154 158 2 
202 154 156 1 
203 154 209 1 
204 155 208 1 
205 156 155 2 
206 157 207 1 
207 158 206 1 
208 159 155 1 
209 160 159 1 
210 160 205 1 
211 161 160 2 
212 161 204 1 
213 162 157 2 
214 162 161 1 
215 162 203 1 
216 163 167 1 
217 164 163 1 
218 164 168 1 
219 165 168 2 
220 166 168 1 
221 166 169 1 
222 166 171 1 
223 166 172 1 
224 169 167 1 
225 170 169 1 
226 170 201 1 
227 170 202 1 
228 170 179 1 
229 171 185 1 
230 171 199 1 
231 171 200 1 
232 172 197 1 
233 172 198 1 
234 173 172 1 
235 173 195 1 
236 173 196 1 
237 174 173 1 
238 174 185 1 
239 175 181 1 
240 175 180 1 
241 176 175 2 
242 176 194 1 
243 176 179 1 
244 177 179 2 
245 177 193 1 
246 178 177 1 
247 178 192 1 
248 178 181 2 
249 180 191 1 
250 182 181 1 
251 183 182 2 
252 184 180 2 
253 184 183 1 
254 186 185 1 
255 187 185 1 
256 188 184 1 
257 189 183 1 
258 190 182 1 
259 239 267 1 
260 239 255 1 
261 239 256 1 
262 239 265 1 
263 241 240 1 
264 242 240 1 
265 243 241 1 
266 243 260 1 
267 244 259 2 
268 245 243 1 
269 245 242 1 
270 245 259 1 
271 246 260 2 
272 247 254 1 
273 248 251 1 
274 249 248 1 
275 249 260 1 
276 249 247 1 
277 249 261 1 
278 250 264 1 
279 251 266 1 
280 252 265 2 
281 253 266 2 
282 254 251 1 
283 254 265 1 
284 255 283 1 
285 256 282 1 
286 257 270 2 
287 258 286 2 
288 261 259 1 
289 262 261 1 
290 262 264 1 
291 263 334 1 
292 264 263 1 
293 264 333 1 
294 267 266 1 
295 268 267 1 
296 268 331 1 
297 268 332 1 
298 270 269 1 
299 270 268 1 
300 271 278 2 
301 271 276 1 
302 271 277 1 
303 272 275 1 
304 272 329 1 
305 272 330 1 
306 272 282 1 
307 273 277 2 
308 273 275 1 
309 273 328 1 
310 274 275 2 
311 274 327 1 
312 274 278 1 
313 276 326 1 
314 277 325 1 
315 279 278 1 
316 279 324 1 
317 280 279 2 
318 280 323 1 
319 281 276 2 
320 281 280 1 
321 281 322 1 
322 283 282 1 
323 283 287 1 
324 284 287 2 
325 285 287 1 
326 285 288 1 
327 285 290 1 
328 285 291 1 
329 286 282 1 
330 286 288 1 
331 289 288 1 
332 289 320 1 
333 289 321 1 
334 290 304 1 
335 290 318 1 
336 290 319 1 
337 291 316 1 
338 291 317 1 
339 292 291 1 
340 292 314 1 
341 292 315 1 
342 293 292 1 
343 293 304 1 
344 294 300 1 
345 294 299 1 
346 295 294 2 
347 295 313 1 
348 296 312 1 
349 297 296 1 
350 297 311 1 
351 297 300 2 
352 298 296 2 
353 298 289 1 
354 298 295 1 
355 301 300 1 
356 302 301 2 
357 303 299 2 
358 303 302 1 
359 305 304 1 
360 306 304 1 
361 307 303 1 
362 308 302 1 
363 309 301 1 
364 310 299 1 
365 335 263 1 
366 336 263 1 
367 337 262 1 
368 338 262 1 
369 339 256 1 
370 340 256 1 
371 341 255 1 
372 342 255 1 
373 343 251 1 
374 344 250 1 
375 345 250 1 
376 346 250 1 
377 347 248 1 
378 348 248 1 
379 349 247 1 
380 350 247 1 
381 351 245 1 
382 352 242 1 
383 353 242 1 
384 354 241 1 
385 355 241 1 
386 356 240 1 
387 357 240 1 
388 358 386 1 
389 358 374 1 
390 358 375 1 
391 358 384 1 
392 359 475 1 
393 359 476 1 
394 360 359 1 
395 360 473 1 
396 360 474 1 
397 361 359 1 
398 361 471 1 
399 361 472 1 
400 362 360 1 
401 362 379 1 
402 363 378 2 
403 364 362 1 
404 364 361 1 
405 364 470 1 
406 364 378 1 
407 365 379 2 
408 366 373 1 
409 366 468 1 
410 366 469 1 
411 367 466 1 
412 367 467 1 
413 368 367 1 
414 368 379 1 
415 368 366 1 
416 368 380 1 
417 369 383 1 
418 369 463 1 
419 369 464 1 
420 369 465 1 
421 370 367 1 
422 370 462 1 
423 370 373 1 
424 370 385 1 
425 371 384 2 
426 372 385 2 
427 373 384 1 
428 374 402 1 
429 374 460 1 
430 374 461 1 
431 375 458 1 
432 375 459 1 
433 375 401 1 
434 376 389 2 
435 377 405 2 
436 380 378 1 
437 381 380 1 
438 381 456 1 
439 381 457 1 
440 381 383 1 
441 382 383 1 
442 382 453 1 
443 382 454 1 
444 382 455 1 
445 383 452 1 
446 386 385 1 
447 387 386 1 
448 387 450 1 
449 387 451 1 
450 389 388 1 
451 389 387 1 
452 390 397 2 
453 390 395 1 
454 390 396 1 
455 391 448 1 
456 391 449 1 
457 391 401 1 
458 392 396 2 
459 392 447 1 
460 393 446 1 
461 393 397 1 
462 394 391 1 
463 394 392 1 
464 394 393 2 
465 395 445 1 
466 396 444 1 
467 398 397 1 
468 398 443 1 
469 399 398 2 
470 399 442 1 
471 400 395 2 
472 400 399 1 
473 400 441 1 
474 402 401 1 
475 404 407 1 
476 404 409 1 
477 404 410 1 
478 405 401 1 
479 405 407 1 
480 406 402 1 
481 406 403 2 
482 406 404 1 
483 408 407 1 
484 408 439 1 
485 408 440 1 
486 409 423 1 
487 409 437 1 
488 409 438 1 
489 410 435 1 
490 410 436 1 
491 411 410 1 
492 411 433 1 
493 411 434 1 
494 412 411 1 
495 412 423 1 
496 413 419 1 
497 414 413 2 
498 414 432 1 
499 415 431 1 
500 416 415 1 
501 416 430 1 
502 416 419 2 
503 417 415 2 
504 417 408 1 
505 417 414 1 
506 418 422 2 
507 418 413 1 
508 418 429 1 
509 420 419 1 
510 421 420 2 
511 422 421 1 
512 424 423 1 
513 425 423 1 
514 426 422 1 
515 427 421 1 
516 428 420 1 
517 477 505 1 
518 477 493 1 
519 477 494 1 
520 477 503 1 
521 478 480 1 
522 478 594 1 
523 478 595 1 
524 478 479 1 
525 479 592 1 
526 479 593 1 
527 480 590 1 
528 480 591 1 
529 481 479 1 
530 481 498 1 
531 482 497 2 
532 483 481 1 
533 483 480 1 
534 483 589 1 
535 483 497 1 
536 484 498 2 
537 485 492 1 
538 485 587 1 
539 485 588 1 
540 486 585 1 
541 486 586 1 
542 487 486 1 
543 487 498 1 
544 487 485 1 
545 487 499 1 
546 488 502 1 
547 488 582 1 
548 488 583 1 
549 488 584 1 
550 489 486 1 
551 489 581 1 
552 489 492 1 
553 489 504 1 
554 490 503 2 
555 491 504 2 
556 492 503 1 
557 493 521 1 
558 493 579 1 
559 493 580 1 
560 494 577 1 
561 494 578 1 
562 494 520 1 
563 495 508 2 
564 496 524 2 
565 499 497 1 
566 500 499 1 
567 500 575 1 
568 500 576 1 
569 501 572 1 
570 501 573 1 
571 501 574 1 
572 502 501 1 
573 502 500 1 
574 502 571 1 
575 505 504 1 
576 506 505 1 
577 506 569 1 
578 506 570 1 
579 508 507 1 
580 508 506 1 
581 509 516 2 
582 509 515 1 
583 510 567 1 
584 510 568 1 
585 510 520 1 
586 511 515 2 
587 511 566 1 
588 512 565 1 
589 512 516 1 
590 513 510 1 
591 513 511 1 
592 513 512 2 
593 514 519 2 
594 514 509 1 
595 514 564 1 
596 515 563 1 
597 517 516 1 
598 517 562 1 
599 518 517 2 
600 518 561 1 
601 519 518 1 
602 519 560 1 
603 521 520 1 
604 523 528 1 
605 523 529 1 
606 524 520 1 
607 525 521 1 
608 525 522 2 
609 525 523 1 
610 526 524 1 
611 526 523 1 
612 526 527 1 
613 527 558 1 
614 527 559 1 
615 528 542 1 
616 528 556 1 
617 528 557 1 
618 529 554 1 
619 529 555 1 
620 530 529 1 
621 530 552 1 
622 530 553 1 
623 531 530 1 
624 531 542 1 
625 533 532 2 
626 533 551 1 
627 534 550 1 
628 535 534 1 
629 535 549 1 
630 536 534 2 
631 536 527 1 
632 536 533 1 
633 537 541 2 
634 537 532 1 
635 537 548 1 
636 538 532 1 
637 538 535 2 
638 538 539 1 
639 540 539 2 
640 541 540 1 
641 543 542 1 
642 544 542 1 
643 545 541 1 
644 546 540 1 
645 547 539 1 
646 596 624 1 
647 596 612 1 
648 596 613 1 
649 596 622 1 
650 597 599 1 
651 597 713 1 
652 597 714 1 
653 598 597 1 
654 598 711 1 
655 598 712 1 
656 598 600 1 
657 599 709 1 
658 599 710 1 
659 600 617 1 
660 601 616 2 
661 602 600 1 
662 602 599 1 
663 602 708 1 
664 602 616 1 
665 603 617 2 
666 604 611 1 
667 604 706 1 
668 604 707 1 
669 605 704 1 
670 605 705 1 
671 606 605 1 
672 606 617 1 
673 606 604 1 
674 606 618 1 
675 607 621 1 
676 607 701 1 
677 607 702 1 
678 607 703 1 
679 608 605 1 
680 608 700 1 
681 608 611 1 
682 608 623 1 
683 609 622 2 
684 610 623 2 
685 612 640 1 
686 612 698 1 
687 612 699 1 
688 613 696 1 
689 613 697 1 
690 613 639 1 
691 614 627 2 
692 615 643 2 
693 618 616 1 
694 619 618 1 
695 619 694 1 
696 619 695 1 
697 620 691 1 
698 620 692 1 
699 620 693 1 
700 621 620 1 
701 621 619 1 
702 621 690 1 
703 622 611 1 
704 624 623 1 
705 625 624 1 
706 625 688 1 
707 625 689 1 
708 627 626 1 
709 627 625 1 
710 628 635 2 
711 629 686 1 
712 629 687 1 
713 629 639 1 
714 630 685 1 
715 631 684 1 
716 631 635 1 
717 632 629 1 
718 632 630 1 
719 632 631 2 
720 633 638 2 
721 633 628 1 
722 633 683 1 
723 634 630 2 
724 634 628 1 
725 634 682 1 
726 636 635 1 
727 636 681 1 
728 637 636 2 
729 637 680 1 
730 638 637 1 
731 638 679 1 
732 640 639 1 
733 642 647 1 
734 642 648 1 
735 643 639 1 
736 644 640 1 
737 644 641 2 
738 644 642 1 
739 645 643 1 
740 645 642 1 
741 646 645 1 
742 646 677 1 
743 646 678 1 
744 646 655 1 
745 647 661 1 
746 647 675 1 
747 647 676 1 
748 648 673 1 
749 648 674 1 
750 649 648 1 
751 649 671 1 
752 649 672 1 
753 650 649 1 
754 650 661 1 
755 652 651 2 
756 652 670 1 
757 653 669 1 
758 654 653 1 
759 654 668 1 
760 655 653 2 
761 655 652 1 
762 656 660 2 
763 656 651 1 
764 656 667 1 
765 657 651 1 
766 657 654 2 
767 658 657 1 
768 658 666 1 
769 658 659 2 
770 660 659 1 
771 662 661 1 
772 663 661 1 
773 664 660 1 
774 665 659 1 
775 715 743 1 
776 715 731 1 
777 715 732 1 
778 715 741 1 
779 716 832 1 
780 716 833 1 
781 717 716 1 
782 717 830 1 
783 717 831 1 
784 717 719 1 
785 718 716 1 
786 718 828 1 
787 718 829 1 
788 718 721 1 
789 719 736 1 
790 720 735 2 
791 721 719 1 
792 721 827 1 
793 721 735 1 
794 722 736 2 
795 723 825 1 
796 723 826 1 
797 724 823 1 
798 724 824 1 
799 725 724 1 
800 725 736 1 
801 725 723 1 
802 725 737 1 
803 726 740 1 
804 726 820 1 
805 726 821 1 
806 726 822 1 
807 727 724 1 
808 727 819 1 
809 727 742 1 
810 728 741 2 
811 729 742 2 
812 730 723 1 
813 730 727 1 
814 730 741 1 
815 731 759 1 
816 731 817 1 
817 731 818 1 
818 732 815 1 
819 732 816 1 
820 732 758 1 
821 733 746 2 
822 734 762 2 
823 737 735 1 
824 738 737 1 
825 738 813 1 
826 738 814 1 
827 739 810 1 
828 739 811 1 
829 739 812 1 
830 740 739 1 
831 740 738 1 
832 740 809 1 
833 742 743 1 
834 744 743 1 
835 744 807 1 
836 744 808 1 
837 746 745 1 
838 746 744 1 
839 748 805 1 
840 748 806 1 
841 748 758 1 
842 749 804 1 
843 750 803 1 
844 751 748 1 
845 751 749 1 
846 751 750 2 
847 752 757 2 
848 752 747 1 
849 752 802 1 
850 753 749 2 
851 753 747 1 
852 753 801 1 
853 754 747 2 
854 754 750 1 
855 754 755 1 
856 755 800 1 
857 756 755 2 
858 756 799 1 
859 757 756 1 
860 757 798 1 
861 759 758 1 
862 761 767 1 
863 762 758 1 
864 763 759 1 
865 763 760 2 
866 763 761 1 
867 764 762 1 
868 764 761 1 
869 765 764 1 
870 765 796 1 
871 765 797 1 
872 765 774 1 
873 766 780 1 
874 766 761 1 
875 766 794 1 
876 766 795 1 
877 767 792 1 
878 767 793 1 
879 768 767 1 
880 768 790 1 
881 768 791 1 
882 769 768 1 
883 769 780 1 
884 771 770 2 
885 771 789 1 
886 772 788 1 
887 773 772 1 
888 773 787 1 
889 774 772 2 
890 774 771 1 
891 775 779 2 
892 775 770 1 
893 775 786 1 
894 776 770 1 
895 776 773 2 
896 777 776 1 
897 777 785 1 
898 778 777 2 
899 778 779 1 
900 778 784 1 
901 781 780 1 
902 782 780 1 
903 783 779 1 
904 834 862 1 
905 834 850 1 
906 834 851 1 
907 834 860 1 
908 835 951 1 
909 835 952 1 
910 836 835 1 
911 836 949 1 
912 836 950 1 
913 837 835 1 
914 837 947 1 
915 837 948 1 
916 837 840 1 
917 838 836 1 
918 838 840 1 
919 838 855 1 
920 839 854 2 
921 840 946 1 
922 840 854 1 
923 841 855 2 
924 842 944 1 
925 842 945 1 
926 843 942 1 
927 843 943 1 
928 844 843 1 
929 844 855 1 
930 844 842 1 
931 844 856 1 
932 845 859 1 
933 845 939 1 
934 845 940 1 
935 845 941 1 
936 846 843 1 
937 846 938 1 
938 846 861 1 
939 847 860 2 
940 848 861 2 
941 849 842 1 
942 849 846 1 
943 849 860 1 
944 850 878 1 
945 850 936 1 
946 850 937 1 
947 851 934 1 
948 851 935 1 
949 851 877 1 
950 852 865 2 
951 853 881 2 
952 856 854 1 
953 857 856 1 
954 857 932 1 
955 857 933 1 
956 858 929 1 
957 858 930 1 
958 858 931 1 
959 859 858 1 
960 859 857 1 
961 859 928 1 
962 862 861 1 
963 862 863 1 
964 863 926 1 
965 863 927 1 
966 865 864 1 
967 865 863 1 
968 867 924 1 
969 867 925 1 
970 867 877 1 
971 868 923 1 
972 869 922 1 
973 870 867 1 
974 870 868 1 
975 870 869 2 
976 871 876 2 
977 871 866 1 
978 871 921 1 
979 872 868 2 
980 872 866 1 
981 872 920 1 
982 873 866 2 
983 873 869 1 
984 874 873 1 
985 874 919 1 
986 874 875 2 
987 875 918 1 
988 876 875 1 
989 876 917 1 
990 878 877 1 
991 881 877 1 
992 882 878 1 
993 882 879 2 
994 882 880 1 
995 883 881 1 
996 883 880 1 
997 884 883 1 
998 884 915 1 
999 884 916 1 
1000 884 893 1 
1001 885 899 1 
1002 885 880 1 
1003 885 913 1 
1004 885 914 1 
1005 886 880 1 
1006 886 911 1 
1007 886 912 1 
1008 886 887 1 
1009 887 909 1 
1010 887 910 1 
1011 888 887 1 
1012 888 899 1 
1013 890 889 2 
1014 890 908 1 
1015 891 907 1 
1016 892 891 1 
1017 892 906 1 
1018 893 891 2 
1019 893 890 1 
1020 894 889 1 
1021 894 905 1 
1022 895 889 1 
1023 895 892 2 
1024 896 895 1 
1025 896 904 1 
1026 897 896 2 
1027 897 903 1 
1028 898 894 2 
1029 898 897 1 
1030 898 902 1 
1031 900 899 1 
1032 901 899 1 
1033 953 981 1 
1034 953 969 1 
1035 953 970 1 
1036 953 979 1 
1037 954 1070 1 
1038 954 1071 1 
1039 955 954 1 
1040 955 1068 1 
1041 955 1069 1 
1042 956 954 1 
1043 956 1066 1 
1044 956 1067 1 
1045 956 959 1 
1046 957 955 1 
1047 957 959 1 
1048 957 974 1 
1049 958 973 2 
1050 959 1065 1 
1051 959 973 1 
1052 960 974 2 
1053 961 1063 1 
1054 961 1064 1 
1055 962 1061 1 
1056 962 1062 1 
1057 963 962 1 
1058 963 974 1 
1059 963 961 1 
1060 963 975 1 
1061 964 978 1 
1062 964 1058 1 
1063 964 1059 1 
1064 964 1060 1 
1065 965 962 1 
1066 965 1057 1 
1067 965 980 1 
1068 966 979 2 
1069 967 980 2 
1070 968 961 1 
1071 968 965 1 
1072 968 979 1 
1073 969 997 1 
1074 969 1055 1 
1075 969 1056 1 
1076 970 1053 1 
1077 970 1054 1 
1078 970 996 1 
1079 971 984 2 
1080 972 1000 2 
1081 975 973 1 
1082 976 975 1 
1083 976 1051 1 
1084 976 1052 1 
1085 977 1048 1 
1086 977 1049 1 
1087 977 1050 1 
1088 978 977 1 
1089 978 976 1 
1090 978 1047 1 
1091 981 980 1 
1092 982 981 1 
1093 982 1045 1 
1094 982 1046 1 
1095 982 984 1 
1096 984 983 1 
1097 986 1043 1 
1098 986 1044 1 
1099 986 996 1 
1100 987 1042 1 
1101 988 1041 1 
1102 989 986 1 
1103 989 987 1 
1104 989 988 2 
1105 990 995 2 
1106 990 985 1 
1107 990 1040 1 
1108 991 987 2 
1109 991 985 1 
1110 991 1039 1 
1111 992 985 2 
1112 992 988 1 
1113 993 992 1 
1114 993 1038 1 
1115 994 993 2 
1116 994 1037 1 
1117 994 995 1 
1118 995 1036 1 
1119 997 996 1 
1120 1000 996 1 
1121 1001 997 1 
1122 1001 998 2 
1123 1001 999 1 
1124 1002 1000 1 
1125 1002 999 1 
1126 1003 1002 1 
1127 1003 1034 1 
1128 1003 1035 1 
1129 1003 1012 1 
1130 1004 1018 1 
1131 1004 999 1 
1132 1004 1032 1 
1133 1004 1033 1 
1134 1005 999 1 
1135 1005 1030 1 
1136 1005 1031 1 
1137 1006 1005 1 
1138 1006 1028 1 
1139 1006 1029 1 
1140 1006 1007 1 
1141 1009 1008 2 
1142 1009 1027 1 
1143 1010 1026 1 
1144 1011 1010 1 
1145 1011 1025 1 
1146 1012 1010 2 
1147 1012 1009 1 
1148 1013 1008 1 
1149 1013 1024 1 
1150 1014 1008 1 
1151 1014 1011 2 
1152 1015 1014 1 
1153 1015 1023 1 
1154 1016 1015 2 
1155 1016 1022 1 
1156 1017 1013 2 
1157 1017 1016 1 
1158 1017 1021 1 
1159 1018 1007 1 
1160 1018 1019 1 
1161 1018 1020 1 
1162 1072 1100 1 
1163 1072 1088 1 
1164 1072 1089 1 
1165 1072 1098 1 
1166 1073 1189 1 
1167 1073 1190 1 
1168 1074 1073 1 
1169 1074 1187 1 
1170 1074 1188 1 
1171 1075 1073 1 
1172 1075 1185 1 
1173 1075 1186 1 
1174 1076 1074 1 
1175 1076 1093 1 
1176 1077 1092 2 
1177 1078 1076 1 
1178 1078 1075 1 
1179 1078 1184 1 
1180 1078 1092 1 
1181 1079 1093 2 
1182 1080 1182 1 
1183 1080 1183 1 
1184 1081 1180 1 
1185 1081 1181 1 
1186 1082 1081 1 
1187 1082 1093 1 
1188 1082 1080 1 
1189 1082 1094 1 
1190 1083 1097 1 
1191 1083 1177 1 
1192 1083 1178 1 
1193 1083 1179 1 
1194 1084 1081 1 
1195 1084 1176 1 
1196 1084 1099 1 
1197 1085 1098 2 
1198 1086 1099 2 
1199 1087 1080 1 
1200 1087 1084 1 
1201 1087 1098 1 
1202 1088 1116 1 
1203 1088 1174 1 
1204 1088 1175 1 
1205 1089 1172 1 
1206 1089 1173 1 
1207 1089 1115 1 
1208 1090 1103 2 
1209 1091 1119 2 
1210 1094 1092 1 
1211 1095 1094 1 
1212 1095 1170 1 
1213 1095 1171 1 
1214 1096 1167 1 
1215 1096 1168 1 
1216 1096 1169 1 
1217 1097 1096 1 
1218 1097 1095 1 
1219 1097 1166 1 
1220 1100 1099 1 
1221 1101 1100 1 
1222 1101 1164 1 
1223 1101 1165 1 
1224 1101 1103 1 
1225 1102 1103 1 
1226 1105 1162 1 
1227 1105 1163 1 
1228 1105 1115 1 
1229 1106 1161 1 
1230 1107 1160 1 
1231 1108 1105 1 
1232 1108 1106 1 
1233 1108 1107 2 
1234 1109 1104 1 
1235 1109 1159 1 
1236 1110 1106 2 
1237 1110 1104 1 
1238 1110 1158 1 
1239 1111 1104 2 
1240 1111 1107 1 
1241 1112 1111 1 
1242 1112 1157 1 
1243 1113 1112 2 
1244 1113 1156 1 
1245 1114 1109 2 
1246 1114 1113 1 
1247 1114 1155 1 
1248 1116 1115 1 
1249 1119 1115 1 
1250 1120 1116 1 
1251 1120 1117 2 
1252 1120 1118 1 
1253 1121 1119 1 
1254 1121 1118 1 
1255 1122 1121 1 
1256 1122 1153 1 
1257 1122 1154 1 
1258 1122 1131 1 
1259 1123 1137 1 
1260 1123 1118 1 
1261 1123 1151 1 
1262 1123 1152 1 
1263 1124 1118 1 
1264 1124 1149 1 
1265 1124 1150 1 
1266 1125 1124 1 
1267 1125 1147 1 
1268 1125 1148 1 
1269 1126 1125 1 
1270 1126 1137 1 
1271 1128 1127 2 
1272 1128 1146 1 
1273 1129 1145 1 
1274 1130 1129 1 
1275 1130 1144 1 
1276 1131 1129 2 
1277 1131 1128 1 
1278 1132 1127 1 
1279 1132 1143 1 
1280 1133 1127 1 
1281 1133 1130 2 
1282 1134 1133 1 
1283 1134 1142 1 
1284 1135 1134 2 
1285 1135 1141 1 
1286 1136 1132 2 
1287 1136 1135 1 
1288 1136 1140 1 
1289 1137 1139 1 
1290 1138 1137 1 
1291 1193 1192 1 
1292 1194 1192 1 
1293 1195 1193 1 
1294 1197 1195 1 
1295 1197 1194 1 
1296 1199 1301 1 
1297 1199 1302 1 
1298 1200 1299 1 
1299 1200 1300 1 
1300 1201 1200 1 
1301 1201 1212 1 
1302 1201 1199 1 
1303 1201 1213 1 
1304 1202 1216 1 
1305 1202 1296 1 
1306 1202 1297 1 
1307 1202 1298 1 
1308 1203 1200 1 
1309 1203 1295 1 
1310 1203 1218 1 
1311 1204 1217 2 
1312 1205 1218 2 
1313 1206 1199 1 
1314 1206 1203 1 
1315 1206 1217 1 
1316 1207 1235 1 
1317 1207 1191 1 
1318 1207 1293 1 
1319 1207 1294 1 
1320 1208 1191 1 
1321 1208 1291 1 
1322 1208 1292 1 
1323 1208 1234 1 
1324 1209 1222 2 
1325 1210 1238 2 
1326 1211 1197 1 
1327 1211 1196 2 
1328 1212 1195 1 
1329 1212 1198 2 
1330 1213 1211 1 
1331 1214 1213 1 
1332 1214 1289 1 
1333 1214 1290 1 
1334 1215 1286 1 
1335 1215 1287 1 
1336 1215 1288 1 
1337 1216 1215 1 
1338 1216 1214 1 
1339 1216 1285 1 
1340 1217 1191 1 
1341 1219 1191 1 
1342 1219 1218 1 
1343 1220 1219 1 
1344 1220 1283 1 
1345 1220 1284 1 
1346 1222 1221 1 
1347 1222 1220 1 
1348 1224 1281 1 
1349 1224 1282 1 
1350 1225 1280 1 
1351 1226 1279 1 
1352 1227 1224 1 
1353 1227 1225 1 
1354 1227 1226 2 
1355 1228 1223 1 
1356 1228 1278 1 
1357 1229 1225 2 
1358 1229 1223 1 
1359 1229 1277 1 
1360 1230 1223 2 
1361 1230 1226 1 
1362 1231 1230 1 
1363 1231 1276 1 
1364 1232 1231 2 
1365 1232 1275 1 
1366 1233 1228 2 
1367 1233 1232 1 
1368 1233 1274 1 
1369 1234 1224 1 
1370 1234 1238 1 
1371 1234 1235 1 
1372 1239 1235 1 
1373 1239 1236 2 
1374 1239 1237 1 
1375 1240 1238 1 
1376 1240 1237 1 
1377 1241 1240 1 
1378 1241 1272 1 
1379 1241 1273 1 
1380 1241 1250 1 
1381 1242 1256 1 
1382 1242 1237 1 
1383 1242 1270 1 
1384 1242 1271 1 
1385 1243 1237 1 
1386 1243 1268 1 
1387 1243 1269 1 
1388 1244 1243 1 
1389 1244 1266 1 
1390 1244 1267 1 
1391 1245 1244 1 
1392 1245 1256 1 
1393 1246 1252 1 
1394 1246 1247 2 
1395 1246 1251 1 
1396 1247 1265 1 
1397 1248 1264 1 
1398 1249 1248 1 
1399 1249 1263 1 
1400 1250 1248 2 
1401 1250 1247 1 
1402 1251 1262 1 
1403 1252 1249 2 
1404 1253 1252 1 
1405 1253 1261 1 
1406 1254 1253 2 
1407 1254 1260 1 
1408 1255 1251 2 
1409 1255 1254 1 
1410 1255 1259 1 
1411 1257 1256 1 
1412 1258 1256 1 
1413 1303 1197 1 
1414 1304 1194 1 
1415 1305 1194 1 
1416 1306 1193 1 
1417 1307 1193 1 
1418 1308 1192 1 
1419 1309 1192 1 
1420 1310 1338 1 
1421 1310 1326 1 
1422 1310 1327 1 
1423 1310 1336 1 
1424 1311 1427 1 
1425 1311 1428 1 
1426 1312 1311 1 
1427 1312 1425 1 
1428 1312 1426 1 
1429 1313 1311 1 
1430 1313 1423 1 
1431 1313 1424 1 
1432 1314 1312 1 
1433 1314 1331 1 
1434 1315 1330 2 
1435 1316 1314 1 
1436 1316 1313 1 
1437 1316 1422 1 
1438 1316 1330 1 
1439 1317 1331 2 
1440 1318 1325 1 
1441 1318 1420 1 
1442 1318 1421 1 
1443 1318 1320 1 
1444 1319 1418 1 
1445 1319 1419 1 
1446 1320 1319 1 
1447 1320 1331 1 
1448 1320 1332 1 
1449 1321 1335 1 
1450 1321 1415 1 
1451 1321 1416 1 
1452 1321 1417 1 
1453 1322 1319 1 
1454 1322 1414 1 
1455 1322 1337 1 
1456 1323 1336 2 
1457 1324 1337 2 
1458 1325 1322 1 
1459 1325 1336 1 
1460 1326 1354 1 
1461 1326 1412 1 
1462 1326 1413 1 
1463 1327 1410 1 
1464 1327 1411 1 
1465 1327 1353 1 
1466 1328 1341 2 
1467 1329 1357 2 
1468 1330 1332 1 
1469 1333 1332 1 
1470 1333 1408 1 
1471 1333 1409 1 
1472 1334 1405 1 
1473 1334 1406 1 
1474 1334 1407 1 
1475 1335 1334 1 
1476 1335 1333 1 
1477 1335 1404 1 
1478 1338 1337 1 
1479 1339 1338 1 
1480 1339 1402 1 
1481 1339 1403 1 
1482 1341 1340 1 
1483 1341 1339 1 
1484 1342 1349 2 
1485 1342 1347 1 
1486 1342 1348 1 
1487 1343 1400 1 
1488 1343 1401 1 
1489 1344 1399 1 
1490 1345 1398 1 
1491 1346 1343 1 
1492 1346 1344 1 
1493 1346 1345 2 
1494 1347 1397 1 
1495 1348 1344 2 
1496 1348 1396 1 
1497 1349 1345 1 
1498 1350 1349 1 
1499 1350 1395 1 
1500 1351 1350 2 
1501 1351 1394 1 
1502 1352 1347 2 
1503 1352 1351 1 
1504 1352 1393 1 
1505 1353 1343 1 
1506 1353 1357 1 
1507 1354 1353 1 
1508 1354 1358 1 
1509 1358 1355 2 
1510 1358 1356 1 
1511 1359 1357 1 
1512 1359 1356 1 
1513 1360 1359 1 
1514 1360 1391 1 
1515 1360 1392 1 
1516 1360 1369 1 
1517 1361 1375 1 
1518 1361 1356 1 
1519 1361 1389 1 
1520 1361 1390 1 
1521 1362 1356 1 
1522 1362 1387 1 
1523 1362 1388 1 
1524 1363 1362 1 
1525 1363 1385 1 
1526 1363 1386 1 
1527 1364 1363 1 
1528 1364 1375 1 
1529 1365 1371 1 
1530 1365 1370 1 
1531 1366 1365 2 
1532 1366 1384 1 
1533 1366 1369 1 
1534 1367 1383 1 
1535 1368 1367 1 
1536 1368 1382 1 
1537 1369 1367 2 
1538 1370 1381 1 
1539 1371 1368 2 
1540 1372 1371 1 
1541 1372 1380 1 
1542 1373 1372 2 
1543 1373 1379 1 
1544 1374 1370 2 
1545 1374 1373 1 
1546 1376 1375 1 
1547 1377 1375 1 
1548 1378 1374 1 
1549 1429 1457 1 
1550 1429 1445 1 
1551 1429 1446 1 
1552 1429 1455 1 
1553 1430 1546 1 
1554 1430 1547 1 
1555 1431 1430 1 
1556 1431 1544 1 
1557 1431 1545 1 
1558 1432 1430 1 
1559 1432 1542 1 
1560 1432 1543 1 
1561 1433 1431 1 
1562 1433 1450 1 
1563 1434 1449 2 
1564 1435 1433 1 
1565 1435 1432 1 
1566 1435 1541 1 
1567 1435 1449 1 
1568 1436 1450 2 
1569 1437 1444 1 
1570 1437 1539 1 
1571 1437 1540 1 
1572 1437 1439 1 
1573 1438 1439 1 
1574 1438 1441 1 
1575 1438 1537 1 
1576 1438 1538 1 
1577 1439 1451 1 
1578 1440 1454 1 
1579 1440 1534 1 
1580 1440 1535 1 
1581 1440 1536 1 
1582 1441 1533 1 
1583 1441 1456 1 
1584 1442 1455 2 
1585 1443 1456 2 
1586 1444 1441 1 
1587 1444 1455 1 
1588 1445 1473 1 
1589 1445 1531 1 
1590 1445 1532 1 
1591 1446 1529 1 
1592 1446 1530 1 
1593 1446 1472 1 
1594 1447 1460 2 
1595 1448 1476 2 
1596 1449 1451 1 
1597 1450 1439 1 
1598 1452 1451 1 
1599 1452 1527 1 
1600 1452 1528 1 
1601 1453 1524 1 
1602 1453 1525 1 
1603 1453 1526 1 
1604 1454 1453 1 
1605 1454 1452 1 
1606 1454 1523 1 
1607 1457 1456 1 
1608 1458 1457 1 
1609 1458 1521 1 
1610 1458 1522 1 
1611 1460 1459 1 
1612 1460 1458 1 
1613 1461 1468 2 
1614 1461 1466 1 
1615 1461 1467 1 
1616 1462 1465 1 
1617 1462 1519 1 
1618 1462 1520 1 
1619 1462 1472 1 
1620 1463 1518 1 
1621 1464 1517 1 
1622 1465 1463 1 
1623 1465 1464 2 
1624 1466 1516 1 
1625 1467 1463 2 
1626 1467 1515 1 
1627 1468 1464 1 
1628 1469 1468 1 
1629 1469 1514 1 
1630 1470 1469 2 
1631 1470 1513 1 
1632 1471 1466 2 
1633 1471 1470 1 
1634 1471 1512 1 
1635 1472 1476 1 
1636 1473 1472 1 
1637 1473 1477 1 
1638 1474 1477 2 
1639 1477 1475 1 
1640 1478 1476 1 
1641 1478 1475 1 
1642 1479 1478 1 
1643 1479 1510 1 
1644 1479 1511 1 
1645 1479 1488 1 
1646 1480 1494 1 
1647 1480 1475 1 
1648 1480 1508 1 
1649 1480 1509 1 
1650 1481 1475 1 
1651 1481 1506 1 
1652 1481 1507 1 
1653 1482 1481 1 
1654 1482 1504 1 
1655 1482 1505 1 
1656 1483 1482 1 
1657 1483 1494 1 
1658 1484 1490 1 
1659 1484 1489 1 
1660 1485 1484 2 
1661 1485 1503 1 
1662 1485 1488 1 
1663 1486 1488 2 
1664 1486 1487 1 
1665 1486 1502 1 
1666 1487 1501 1 
1667 1489 1500 1 
1668 1490 1487 2 
1669 1491 1490 1 
1670 1491 1499 1 
1671 1492 1491 2 
1672 1493 1489 2 
1673 1493 1492 1 
1674 1495 1494 1 
1675 1496 1494 1 
1676 1497 1493 1 
1677 1498 1492 1 
1678 1548 1576 1 
1679 1548 1564 1 
1680 1548 1565 1 
1681 1548 1574 1 
1682 1549 1665 1 
1683 1549 1666 1 
1684 1550 1549 1 
1685 1550 1663 1 
1686 1550 1664 1 
1687 1551 1549 1 
1688 1551 1661 1 
1689 1551 1662 1 
1690 1552 1550 1 
1691 1552 1569 1 
1692 1553 1568 2 
1693 1554 1552 1 
1694 1554 1551 1 
1695 1554 1660 1 
1696 1554 1568 1 
1697 1555 1569 2 
1698 1556 1563 1 
1699 1556 1658 1 
1700 1556 1659 1 
1701 1557 1560 1 
1702 1557 1656 1 
1703 1557 1657 1 
1704 1558 1557 1 
1705 1558 1569 1 
1706 1558 1556 1 
1707 1558 1570 1 
1708 1559 1573 1 
1709 1559 1653 1 
1710 1559 1654 1 
1711 1559 1655 1 
1712 1560 1652 1 
1713 1560 1575 1 
1714 1561 1574 2 
1715 1562 1575 2 
1716 1563 1560 1 
1717 1563 1574 1 
1718 1564 1592 1 
1719 1564 1650 1 
1720 1564 1651 1 
1721 1565 1648 1 
1722 1565 1649 1 
1723 1565 1591 1 
1724 1566 1579 2 
1725 1567 1595 2 
1726 1570 1568 1 
1727 1570 1571 1 
1728 1571 1646 1 
1729 1571 1647 1 
1730 1572 1643 1 
1731 1572 1644 1 
1732 1572 1645 1 
1733 1573 1572 1 
1734 1573 1571 1 
1735 1573 1642 1 
1736 1576 1575 1 
1737 1577 1576 1 
1738 1577 1640 1 
1739 1577 1641 1 
1740 1579 1578 1 
1741 1579 1577 1 
1742 1580 1587 2 
1743 1580 1585 1 
1744 1580 1586 1 
1745 1581 1584 1 
1746 1581 1638 1 
1747 1581 1639 1 
1748 1581 1591 1 
1749 1582 1586 2 
1750 1582 1584 1 
1751 1582 1637 1 
1752 1583 1636 1 
1753 1584 1583 2 
1754 1585 1635 1 
1755 1586 1634 1 
1756 1587 1583 1 
1757 1588 1587 1 
1758 1588 1633 1 
1759 1589 1588 2 
1760 1589 1632 1 
1761 1590 1585 2 
1762 1590 1589 1 
1763 1590 1631 1 
1764 1591 1595 1 
1765 1592 1591 1 
1766 1592 1596 1 
1767 1593 1596 2 
1768 1594 1596 1 
1769 1594 1597 1 
1770 1594 1599 1 
1771 1594 1600 1 
1772 1597 1595 1 
1773 1598 1597 1 
1774 1598 1629 1 
1775 1598 1630 1 
1776 1598 1607 1 
1777 1599 1613 1 
1778 1599 1627 1 
1779 1599 1628 1 
1780 1600 1625 1 
1781 1600 1626 1 
1782 1601 1600 1 
1783 1601 1623 1 
1784 1601 1624 1 
1785 1602 1601 1 
1786 1602 1613 1 
1787 1603 1609 1 
1788 1603 1608 1 
1789 1604 1603 2 
1790 1604 1622 1 
1791 1604 1607 1 
1792 1605 1607 2 
1793 1605 1621 1 
1794 1606 1605 1 
1795 1606 1620 1 
1796 1606 1609 2 
1797 1608 1619 1 
1798 1610 1609 1 
1799 1611 1610 2 
1800 1612 1608 2 
1801 1612 1611 1 
1802 1614 1613 1 
1803 1615 1613 1 
1804 1616 1612 1 
1805 1617 1611 1 
1806 1618 1610 1 
1807 1667 1695 1 
1808 1667 1683 1 
1809 1667 1684 1 
1810 1667 1693 1 
1811 1668 1784 1 
1812 1668 1785 1 
1813 1669 1668 1 
1814 1669 1782 1 
1815 1669 1783 1 
1816 1670 1668 1 
1817 1670 1780 1 
1818 1670 1781 1 
1819 1671 1669 1 
1820 1671 1688 1 
1821 1672 1687 2 
1822 1673 1671 1 
1823 1673 1670 1 
1824 1673 1779 1 
1825 1673 1687 1 
1826 1674 1688 2 
1827 1675 1682 1 
1828 1675 1777 1 
1829 1675 1778 1 
1830 1676 1679 1 
1831 1676 1775 1 
1832 1676 1776 1 
1833 1677 1676 1 
1834 1677 1688 1 
1835 1677 1675 1 
1836 1677 1689 1 
1837 1678 1692 1 
1838 1678 1772 1 
1839 1678 1773 1 
1840 1678 1774 1 
1841 1679 1771 1 
1842 1679 1694 1 
1843 1680 1693 2 
1844 1681 1694 2 
1845 1682 1679 1 
1846 1682 1693 1 
1847 1683 1711 1 
1848 1683 1769 1 
1849 1683 1770 1 
1850 1684 1767 1 
1851 1684 1768 1 
1852 1684 1710 1 
1853 1685 1698 2 
1854 1686 1714 2 
1855 1689 1687 1 
1856 1690 1689 1 
1857 1690 1765 1 
1858 1690 1766 1 
1859 1690 1692 1 
1860 1691 1762 1 
1861 1691 1763 1 
1862 1691 1764 1 
1863 1692 1691 1 
1864 1692 1761 1 
1865 1695 1694 1 
1866 1696 1695 1 
1867 1696 1759 1 
1868 1696 1760 1 
1869 1698 1697 1 
1870 1698 1696 1 
1871 1699 1706 2 
1872 1699 1704 1 
1873 1699 1705 1 
1874 1700 1703 1 
1875 1700 1757 1 
1876 1700 1758 1 
1877 1700 1710 1 
1878 1701 1705 2 
1879 1701 1703 1 
1880 1701 1756 1 
1881 1702 1703 2 
1882 1702 1755 1 
1883 1702 1706 1 
1884 1704 1754 1 
1885 1705 1753 1 
1886 1707 1706 1 
1887 1707 1752 1 
1888 1708 1707 2 
1889 1708 1751 1 
1890 1709 1704 2 
1891 1709 1708 1 
1892 1709 1750 1 
1893 1711 1710 1 
1894 1711 1715 1 
1895 1712 1715 2 
1896 1713 1715 1 
1897 1713 1716 1 
1898 1713 1718 1 
1899 1713 1719 1 
1900 1714 1710 1 
1901 1714 1716 1 
1902 1717 1716 1 
1903 1717 1748 1 
1904 1717 1749 1 
1905 1718 1732 1 
1906 1718 1746 1 
1907 1718 1747 1 
1908 1719 1744 1 
1909 1719 1745 1 
1910 1720 1719 1 
1911 1720 1742 1 
1912 1720 1743 1 
1913 1721 1720 1 
1914 1721 1732 1 
1915 1722 1728 1 
1916 1722 1727 1 
1917 1723 1722 2 
1918 1723 1741 1 
1919 1724 1740 1 
1920 1725 1724 1 
1921 1725 1739 1 
1922 1725 1728 2 
1923 1726 1724 2 
1924 1726 1717 1 
1925 1726 1723 1 
1926 1729 1728 1 
1927 1730 1729 2 
1928 1731 1727 2 
1929 1731 1730 1 
1930 1733 1732 1 
1931 1734 1732 1 
1932 1735 1731 1 
1933 1736 1730 1 
1934 1737 1729 1 
1935 1738 1727 1 
1936 1787 1903 1 
1937 1787 1904 1 
1938 1788 1787 1 
1939 1788 1901 1 
1940 1788 1902 1 
1941 1789 1787 1 
1942 1789 1899 1 
1943 1789 1900 1 
1944 1790 1788 1 
1945 1790 1807 1 
1946 1791 1806 2 
1947 1792 1790 1 
1948 1792 1789 1 
1949 1792 1898 1 
1950 1792 1806 1 
1951 1793 1807 2 
1952 1794 1801 1 
1953 1794 1896 1 
1954 1794 1897 1 
1955 1795 1894 1 
1956 1795 1895 1 
1957 1796 1795 1 
1958 1796 1807 1 
1959 1796 1794 1 
1960 1796 1808 1 
1961 1797 1811 1 
1962 1797 1891 1 
1963 1797 1892 1 
1964 1797 1893 1 
1965 1798 1795 1 
1966 1798 1890 1 
1967 1798 1801 1 
1968 1798 1813 1 
1969 1799 1812 2 
1970 1800 1813 2 
1971 1801 1812 1 
1972 1802 1830 1 
1973 1802 1786 1 
1974 1802 1888 1 
1975 1802 1889 1 
1976 1803 1786 1 
1977 1803 1886 1 
1978 1803 1887 1 
1979 1803 1829 1 
1980 1804 1817 2 
1981 1805 1833 2 
1982 1808 1806 1 
1983 1809 1808 1 
1984 1809 1884 1 
1985 1809 1885 1 
1986 1809 1811 1 
1987 1810 1811 1 
1988 1810 1881 1 
1989 1810 1882 1 
1990 1810 1883 1 
1991 1811 1880 1 
1992 1812 1786 1 
1993 1814 1786 1 
1994 1814 1813 1 
1995 1815 1814 1 
1996 1815 1878 1 
1997 1815 1879 1 
1998 1817 1816 1 
1999 1817 1815 1 
2000 1818 1825 2 
2001 1818 1823 1 
2002 1818 1824 1 
2003 1819 1876 1 
2004 1819 1877 1 
2005 1819 1829 1 
2006 1820 1824 2 
2007 1820 1875 1 
2008 1821 1874 1 
2009 1821 1825 1 
2010 1822 1819 1 
2011 1822 1820 1 
2012 1822 1821 2 
2013 1823 1873 1 
2014 1824 1872 1 
2015 1826 1825 1 
2016 1826 1871 1 
2017 1827 1826 2 
2018 1827 1870 1 
2019 1828 1823 2 
2020 1828 1827 1 
2021 1828 1869 1 
2022 1830 1829 1 
2023 1832 1835 1 
2024 1832 1837 1 
2025 1832 1838 1 
2026 1833 1829 1 
2027 1833 1835 1 
2028 1834 1830 1 
2029 1834 1831 2 
2030 1834 1832 1 
2031 1836 1835 1 
2032 1836 1867 1 
2033 1836 1868 1 
2034 1837 1851 1 
2035 1837 1865 1 
2036 1837 1866 1 
2037 1838 1863 1 
2038 1838 1864 1 
2039 1839 1838 1 
2040 1839 1861 1 
2041 1839 1862 1 
2042 1840 1839 1 
2043 1840 1851 1 
2044 1841 1847 1 
2045 1842 1841 2 
2046 1842 1860 1 
2047 1843 1859 1 
2048 1844 1843 1 
2049 1844 1858 1 
2050 1844 1847 2 
2051 1845 1843 2 
2052 1845 1836 1 
2053 1845 1842 1 
2054 1846 1850 2 
2055 1846 1841 1 
2056 1846 1857 1 
2057 1848 1847 1 
2058 1849 1848 2 
2059 1850 1849 1 
2060 1852 1851 1 
2061 1853 1851 1 
2062 1854 1850 1 
2063 1855 1849 1 
2064 1856 1848 1 
2065 1905 1933 1 
2066 1905 1921 1 
2067 1905 1922 1 
2068 1905 1931 1 
2069 1906 1908 1 
2070 1906 2022 1 
2071 1906 2023 1 
2072 1906 1907 1 
2073 1907 2020 1 
2074 1907 2021 1 
2075 1908 2018 1 
2076 1908 2019 1 
2077 1909 1907 1 
2078 1909 1926 1 
2079 1910 1925 2 
2080 1911 1909 1 
2081 1911 1908 1 
2082 1911 2017 1 
2083 1911 1925 1 
2084 1912 1926 2 
2085 1913 1920 1 
2086 1913 2015 1 
2087 1913 2016 1 
2088 1914 2013 1 
2089 1914 2014 1 
2090 1915 1914 1 
2091 1915 1926 1 
2092 1915 1913 1 
2093 1915 1927 1 
2094 1916 1930 1 
2095 1916 2010 1 
2096 1916 2011 1 
2097 1916 2012 1 
2098 1917 1914 1 
2099 1917 2009 1 
2100 1917 1920 1 
2101 1917 1932 1 
2102 1918 1931 2 
2103 1919 1932 2 
2104 1920 1931 1 
2105 1921 1949 1 
2106 1921 2007 1 
2107 1921 2008 1 
2108 1922 2005 1 
2109 1922 2006 1 
2110 1922 1948 1 
2111 1923 1936 2 
2112 1924 1952 2 
2113 1927 1925 1 
2114 1928 1927 1 
2115 1928 2003 1 
2116 1928 2004 1 
2117 1929 2000 1 
2118 1929 2001 1 
2119 1929 2002 1 
2120 1930 1929 1 
2121 1930 1928 1 
2122 1930 1999 1 
2123 1933 1932 1 
2124 1934 1933 1 
2125 1934 1997 1 
2126 1934 1998 1 
2127 1936 1935 1 
2128 1936 1934 1 
2129 1937 1944 2 
2130 1937 1943 1 
2131 1938 1995 1 
2132 1938 1996 1 
2133 1938 1948 1 
2134 1939 1943 2 
2135 1939 1994 1 
2136 1940 1993 1 
2137 1940 1944 1 
2138 1941 1938 1 
2139 1941 1939 1 
2140 1941 1940 2 
2141 1942 1947 2 
2142 1942 1937 1 
2143 1942 1992 1 
2144 1943 1991 1 
2145 1945 1944 1 
2146 1945 1990 1 
2147 1946 1945 2 
2148 1946 1989 1 
2149 1947 1946 1 
2150 1947 1988 1 
2151 1949 1948 1 
2152 1951 1956 1 
2153 1951 1957 1 
2154 1952 1948 1 
2155 1953 1949 1 
2156 1953 1950 2 
2157 1953 1951 1 
2158 1954 1952 1 
2159 1954 1951 1 
2160 1954 1955 1 
2161 1955 1986 1 
2162 1955 1987 1 
2163 1956 1970 1 
2164 1956 1984 1 
2165 1956 1985 1 
2166 1957 1982 1 
2167 1957 1983 1 
2168 1958 1957 1 
2169 1958 1980 1 
2170 1958 1981 1 
2171 1959 1958 1 
2172 1959 1970 1 
2173 1961 1960 2 
2174 1961 1979 1 
2175 1962 1978 1 
2176 1963 1962 1 
2177 1963 1977 1 
2178 1964 1962 2 
2179 1964 1955 1 
2180 1964 1961 1 
2181 1965 1969 2 
2182 1965 1960 1 
2183 1965 1976 1 
2184 1966 1960 1 
2185 1966 1963 2 
2186 1966 1967 1 
2187 1968 1967 2 
2188 1969 1968 1 
2189 1971 1970 1 
2190 1972 1970 1 
2191 1973 1969 1 
2192 1974 1968 1 
2193 1975 1967 1 
2194 2024 2052 1 
2195 2024 2040 1 
2196 2024 2041 1 
2197 2024 2050 1 
2198 2025 2027 1 
2199 2025 2141 1 
2200 2025 2142 1 
2201 2026 2025 1 
2202 2026 2139 1 
2203 2026 2140 1 
2204 2026 2028 1 
2205 2027 2137 1 
2206 2027 2138 1 
2207 2028 2045 1 
2208 2029 2044 2 
2209 2030 2028 1 
2210 2030 2027 1 
2211 2030 2136 1 
2212 2030 2044 1 
2213 2031 2045 2 
2214 2032 2039 1 
2215 2032 2134 1 
2216 2032 2135 1 
2217 2033 2132 1 
2218 2033 2133 1 
2219 2034 2033 1 
2220 2034 2045 1 
2221 2034 2032 1 
2222 2034 2046 1 
2223 2035 2049 1 
2224 2035 2129 1 
2225 2035 2130 1 
2226 2035 2131 1 
2227 2036 2033 1 
2228 2036 2128 1 
2229 2036 2039 1 
2230 2036 2051 1 
2231 2037 2050 2 
2232 2038 2051 2 
2233 2040 2068 1 
2234 2040 2126 1 
2235 2040 2127 1 
2236 2041 2124 1 
2237 2041 2125 1 
2238 2041 2067 1 
2239 2042 2055 2 
2240 2043 2071 2 
2241 2046 2044 1 
2242 2047 2046 1 
2243 2047 2122 1 
2244 2047 2123 1 
2245 2048 2119 1 
2246 2048 2120 1 
2247 2048 2121 1 
2248 2049 2048 1 
2249 2049 2047 1 
2250 2049 2118 1 
2251 2050 2039 1 
2252 2052 2051 1 
2253 2053 2052 1 
2254 2053 2116 1 
2255 2053 2117 1 
2256 2055 2054 1 
2257 2055 2053 1 
2258 2056 2063 2 
2259 2057 2114 1 
2260 2057 2115 1 
2261 2057 2067 1 
2262 2058 2113 1 
2263 2059 2112 1 
2264 2059 2063 1 
2265 2060 2057 1 
2266 2060 2058 1 
2267 2060 2059 2 
2268 2061 2066 2 
2269 2061 2056 1 
2270 2061 2111 1 
2271 2062 2058 2 
2272 2062 2056 1 
2273 2062 2110 1 
2274 2064 2063 1 
2275 2064 2109 1 
2276 2065 2064 2 
2277 2065 2108 1 
2278 2066 2065 1 
2279 2066 2107 1 
2280 2068 2067 1 
2281 2070 2075 1 
2282 2070 2076 1 
2283 2071 2067 1 
2284 2072 2068 1 
2285 2072 2069 2 
2286 2072 2070 1 
2287 2073 2071 1 
2288 2073 2070 1 
2289 2074 2073 1 
2290 2074 2105 1 
2291 2074 2106 1 
2292 2074 2083 1 
2293 2075 2089 1 
2294 2075 2103 1 
2295 2075 2104 1 
2296 2076 2101 1 
2297 2076 2102 1 
2298 2077 2076 1 
2299 2077 2099 1 
2300 2077 2100 1 
2301 2078 2077 1 
2302 2078 2089 1 
2303 2080 2079 2 
2304 2080 2098 1 
2305 2081 2097 1 
2306 2082 2081 1 
2307 2082 2096 1 
2308 2083 2081 2 
2309 2083 2080 1 
2310 2084 2088 2 
2311 2084 2079 1 
2312 2084 2095 1 
2313 2085 2079 1 
2314 2085 2082 2 
2315 2086 2085 1 
2316 2086 2094 1 
2317 2086 2087 2 
2318 2088 2087 1 
2319 2090 2089 1 
2320 2091 2089 1 
2321 2092 2088 1 
2322 2093 2087 1 
2323 2143 2171 1 
2324 2143 2159 1 
2325 2143 2160 1 
2326 2143 2169 1 
2327 2145 2144 1 
2328 2145 2147 1 
2329 2146 2144 1 
2330 2146 2149 1 
2331 2147 2164 1 
2332 2148 2163 2 
2333 2149 2147 1 
2334 2149 2163 1 
2335 2150 2164 2 
2336 2153 2152 1 
2337 2153 2164 1 
2338 2153 2151 1 
2339 2153 2165 1 
2340 2154 2168 1 
2341 2155 2152 1 
2342 2155 2170 1 
2343 2156 2169 2 
2344 2157 2170 2 
2345 2158 2151 1 
2346 2158 2155 1 
2347 2158 2169 1 
2348 2159 2187 1 
2349 2160 2186 1 
2350 2161 2174 2 
2351 2162 2190 2 
2352 2165 2163 1 
2353 2166 2165 1 
2354 2168 2167 1 
2355 2168 2166 1 
2356 2170 2171 1 
2357 2172 2171 1 
2358 2174 2173 1 
2359 2174 2172 1 
2360 2176 2186 1 
2361 2179 2176 1 
2362 2179 2177 1 
2363 2179 2178 2 
2364 2180 2185 2 
2365 2180 2175 1 
2366 2181 2177 2 
2367 2181 2175 1 
2368 2182 2175 2 
2369 2182 2178 1 
2370 2182 2183 1 
2371 2184 2183 2 
2372 2185 2184 1 
2373 2187 2186 1 
2374 2189 2195 1 
2375 2190 2186 1 
2376 2191 2187 1 
2377 2191 2188 2 
2378 2191 2189 1 
2379 2192 2190 1 
2380 2192 2189 1 
2381 2193 2192 1 
2382 2193 2202 1 
2383 2194 2208 1 
2384 2194 2189 1 
2385 2196 2195 1 
2386 2196 2218 1 
2387 2197 2196 1 
2388 2197 2208 1 
2389 2199 2198 2 
2390 2199 2217 1 
2391 2200 2216 1 
2392 2201 2200 1 
2393 2201 2215 1 
2394 2202 2200 2 
2395 2202 2199 1 
2396 2203 2207 2 
2397 2203 2198 1 
2398 2203 2214 1 
2399 2204 2198 1 
2400 2204 2201 2 
2401 2205 2204 1 
2402 2205 2213 1 
2403 2206 2205 2 
2404 2206 2207 1 
2405 2206 2212 1 
2406 2209 2208 1 
2407 2210 2208 1 
2408 2211 2207 1 
2409 2219 2196 1 
2410 2220 2195 1 
2411 2221 2195 1 
2412 2222 2194 1 
2413 2223 2194 1 
2414 2224 2193 1 
2415 2225 2193 1 
2416 2226 2185 1 
2417 2227 2184 1 
2418 2228 2183 1 
2419 2229 2181 1 
2420 2230 2180 1 
2421 2231 2178 1 
2422 2232 2177 1 
2423 2233 2176 1 
2424 2234 2176 1 
2425 2235 2172 1 
2426 2236 2172 1 
2427 2237 2168 1 
2428 2238 2167 1 
2429 2239 2167 1 
2430 2240 2167 1 
2431 2241 2166 1 
2432 2242 2166 1 
2433 2243 2160 1 
2434 2244 2160 1 
2435 2245 2159 1 
2436 2246 2159 1 
2437 2247 2155 1 
2438 2248 2154 1 
2439 2249 2154 1 
2440 2250 2154 1 
2441 2251 2152 1 
2442 2252 2152 1 
2443 2253 2151 1 
2444 2254 2151 1 
2445 2255 2149 1 
2446 2256 2146 1 
2447 2257 2146 1 
2448 2258 2145 1 
2449 2259 2145 1 
2450 2260 2144 1 
2451 2261 2144 1 
2452 2262 2290 1 
2453 2262 2278 1 
2454 2262 2279 1 
2455 2262 2288 1 
2456 2264 2263 1 
2457 2265 2263 1 
2458 2265 2268 1 
2459 2266 2264 1 
2460 2266 2268 1 
2461 2266 2283 1 
2462 2267 2282 2 
2463 2268 2282 1 
2464 2269 2283 2 
2465 2272 2271 1 
2466 2272 2283 1 
2467 2272 2270 1 
2468 2272 2284 1 
2469 2273 2287 1 
2470 2274 2271 1 
2471 2274 2289 1 
2472 2275 2288 2 
2473 2276 2289 2 
2474 2277 2270 1 
2475 2277 2274 1 
2476 2277 2288 1 
2477 2278 2306 1 
2478 2279 2305 1 
2479 2280 2293 2 
2480 2281 2309 2 
2481 2284 2282 1 
2482 2285 2284 1 
2483 2287 2286 1 
2484 2287 2285 1 
2485 2290 2289 1 
2486 2290 2291 1 
2487 2293 2292 1 
2488 2293 2291 1 
2489 2295 2305 1 
2490 2298 2295 1 
2491 2298 2296 1 
2492 2298 2297 2 
2493 2299 2304 2 
2494 2299 2294 1 
2495 2300 2296 2 
2496 2300 2294 1 
2497 2301 2294 2 
2498 2301 2297 1 
2499 2302 2301 1 
2500 2302 2303 2 
2501 2304 2303 1 
2502 2306 2305 1 
2503 2309 2305 1 
2504 2310 2306 1 
2505 2310 2307 2 
2506 2310 2308 1 
2507 2311 2309 1 
2508 2311 2308 1 
2509 2312 2311 1 
2510 2313 2308 1 
2511 2314 2308 1 
2512 2315 2314 1 
2513 2315 2337 1 
2514 2315 2338 1 
2515 2316 2315 1 
2516 2316 2327 1 
2517 2318 2317 2 
2518 2318 2336 1 
2519 2319 2335 1 
2520 2320 2319 1 
2521 2320 2334 1 
2522 2321 2319 2 
2523 2321 2312 1 
2524 2321 2318 1 
2525 2322 2317 1 
2526 2322 2333 1 
2527 2323 2317 1 
2528 2323 2320 2 
2529 2324 2323 1 
2530 2324 2332 1 
2531 2325 2324 2 
2532 2325 2331 1 
2533 2326 2322 2 
2534 2326 2325 1 
2535 2326 2330 1 
2536 2327 2313 1 
2537 2328 2327 1 
2538 2329 2327 1 
2539 2339 2314 1 
2540 2340 2314 1 
2541 2341 2313 1 
2542 2342 2313 1 
2543 2343 2312 1 
2544 2344 2312 1 
2545 2345 2304 1 
2546 2346 2303 1 
2547 2347 2302 1 
2548 2348 2300 1 
2549 2349 2299 1 
2550 2350 2297 1 
2551 2351 2296 1 
2552 2352 2295 1 
2553 2353 2295 1 
2554 2354 2291 1 
2555 2355 2291 1 
2556 2356 2287 1 
2557 2357 2286 1 
2558 2358 2286 1 
2559 2359 2286 1 
2560 2360 2285 1 
2561 2361 2285 1 
2562 2362 2279 1 
2563 2363 2279 1 
2564 2364 2278 1 
2565 2365 2278 1 
2566 2366 2274 1 
2567 2367 2273 1 
2568 2368 2273 1 
2569 2369 2273 1 
2570 2370 2271 1 
2571 2371 2271 1 
2572 2372 2270 1 
2573 2373 2270 1 
2574 2374 2268 1 
2575 2375 2265 1 
2576 2376 2265 1 
2577 2377 2264 1 
2578 2378 2264 1 
2579 2379 2263 1 
2580 2380 2263 1 
2581 2381 2409 1 
2582 2381 2397 1 
2583 2381 2398 1 
2584 2381 2407 1 
2585 2383 2382 1 
2586 2384 2382 1 
2587 2384 2387 1 
2588 2385 2383 1 
2589 2385 2387 1 
2590 2385 2402 1 
2591 2386 2401 2 
2592 2387 2401 1 
2593 2388 2402 2 
2594 2391 2390 1 
2595 2391 2402 1 
2596 2391 2389 1 
2597 2391 2403 1 
2598 2392 2406 1 
2599 2393 2390 1 
2600 2393 2408 1 
2601 2394 2407 2 
2602 2395 2408 2 
2603 2396 2389 1 
2604 2396 2393 1 
2605 2396 2407 1 
2606 2397 2425 1 
2607 2398 2481 1 
2608 2398 2482 1 
2609 2398 2424 1 
2610 2399 2412 2 
2611 2400 2428 2 
2612 2403 2401 1 
2613 2404 2403 1 
2614 2404 2479 1 
2615 2404 2480 1 
2616 2405 2476 1 
2617 2405 2477 1 
2618 2405 2478 1 
2619 2406 2405 1 
2620 2406 2404 1 
2621 2406 2475 1 
2622 2409 2408 1 
2623 2410 2409 1 
2624 2410 2473 1 
2625 2410 2474 1 
2626 2410 2412 1 
2627 2412 2411 1 
2628 2414 2471 1 
2629 2414 2472 1 
2630 2414 2424 1 
2631 2415 2470 1 
2632 2416 2469 1 
2633 2417 2414 1 
2634 2417 2415 1 
2635 2417 2416 2 
2636 2418 2423 2 
2637 2418 2413 1 
2638 2418 2468 1 
2639 2419 2415 2 
2640 2419 2413 1 
2641 2419 2467 1 
2642 2420 2413 2 
2643 2420 2416 1 
2644 2421 2420 1 
2645 2421 2466 1 
2646 2422 2421 2 
2647 2422 2465 1 
2648 2422 2423 1 
2649 2423 2464 1 
2650 2425 2424 1 
2651 2428 2424 1 
2652 2429 2425 1 
2653 2429 2426 2 
2654 2429 2427 1 
2655 2430 2428 1 
2656 2430 2427 1 
2657 2431 2430 1 
2658 2431 2462 1 
2659 2431 2463 1 
2660 2431 2440 1 
2661 2432 2446 1 
2662 2432 2427 1 
2663 2432 2460 1 
2664 2432 2461 1 
2665 2433 2427 1 
2666 2433 2458 1 
2667 2433 2459 1 
2668 2434 2433 1 
2669 2434 2456 1 
2670 2434 2457 1 
2671 2434 2435 1 
2672 2437 2436 2 
2673 2437 2455 1 
2674 2438 2454 1 
2675 2439 2438 1 
2676 2439 2453 1 
2677 2440 2438 2 
2678 2440 2437 1 
2679 2441 2436 1 
2680 2441 2452 1 
2681 2442 2436 1 
2682 2442 2439 2 
2683 2443 2442 1 
2684 2443 2451 1 
2685 2444 2443 2 
2686 2444 2450 1 
2687 2445 2441 2 
2688 2445 2444 1 
2689 2445 2449 1 
2690 2446 2435 1 
2691 2446 2447 1 
2692 2446 2448 1 
2693 2483 2397 1 
2694 2484 2397 1 
2695 2485 2393 1 
2696 2486 2392 1 
2697 2487 2392 1 
2698 2488 2392 1 
2699 2489 2390 1 
2700 2490 2390 1 
2701 2491 2389 1 
2702 2492 2389 1 
2703 2493 2387 1 
2704 2494 2384 1 
2705 2495 2384 1 
2706 2496 2383 1 
2707 2497 2383 1 
2708 2498 2382 1 
2709 2499 2382 1 
2710 2500 2528 1 
2711 2500 2516 1 
2712 2500 2517 1 
2713 2500 2526 1 
2714 2502 2501 1 
2715 2503 2501 1 
2716 2504 2502 1 
2717 2504 2521 1 
2718 2505 2520 2 
2719 2506 2504 1 
2720 2506 2503 1 
2721 2506 2520 1 
2722 2507 2521 2 
2723 2510 2509 1 
2724 2510 2521 1 
2725 2510 2508 1 
2726 2510 2522 1 
2727 2511 2525 1 
2728 2512 2509 1 
2729 2512 2527 1 
2730 2513 2526 2 
2731 2514 2527 2 
2732 2515 2508 1 
2733 2515 2512 1 
2734 2515 2526 1 
2735 2518 2531 2 
2736 2522 2520 1 
2737 2523 2522 1 
2738 2525 2524 1 
2739 2525 2523 1 
2740 2528 2527 1 
2741 2529 2528 1 
2742 2529 2531 1 
2743 2530 2531 1 
2744 2536 2533 1 
2745 2536 2534 1 
2746 2536 2535 2 
2747 2537 2532 1 
2748 2538 2534 2 
2749 2538 2532 1 
2750 2539 2532 2 
2751 2539 2535 1 
2752 2540 2539 1 
2753 2541 2540 2 
2754 2542 2537 2 
2755 2542 2541 1 
2756 2543 2517 1 
2757 2543 2533 1 
2758 2544 2516 1 
2759 2544 2543 1 
2760 2547 2543 1 
2761 2547 2519 2 
2762 2548 2544 1 
2763 2548 2545 2 
2764 2548 2546 1 
2765 2549 2547 1 
2766 2549 2546 1 
2767 2550 2549 1 
2768 2550 2581 1 
2769 2550 2582 1 
2770 2550 2559 1 
2771 2551 2565 1 
2772 2551 2546 1 
2773 2551 2579 1 
2774 2551 2580 1 
2775 2552 2546 1 
2776 2552 2577 1 
2777 2552 2578 1 
2778 2553 2552 1 
2779 2553 2575 1 
2780 2553 2576 1 
2781 2554 2553 1 
2782 2554 2565 1 
2783 2556 2555 2 
2784 2556 2574 1 
2785 2557 2573 1 
2786 2558 2557 1 
2787 2558 2572 1 
2788 2559 2557 2 
2789 2559 2556 1 
2790 2560 2555 1 
2791 2560 2571 1 
2792 2561 2555 1 
2793 2561 2558 2 
2794 2562 2561 1 
2795 2562 2570 1 
2796 2563 2562 2 
2797 2563 2569 1 
2798 2564 2560 2 
2799 2564 2563 1 
2800 2564 2568 1 
2801 2565 2567 1 
2802 2566 2565 1 
2803 2583 2542 1 
2804 2584 2541 1 
2805 2585 2540 1 
2806 2586 2538 1 
2807 2587 2537 1 
2808 2588 2535 1 
2809 2589 2534 1 
2810 2590 2533 1 
2811 2591 2533 1 
2812 2592 2529 1 
2813 2593 2529 1 
2814 2594 2525 1 
2815 2595 2524 1 
2816 2596 2524 1 
2817 2597 2524 1 
2818 2598 2523 1 
2819 2599 2523 1 
2820 2600 2517 1 
2821 2601 2517 1 
2822 2602 2516 1 
2823 2603 2516 1 
2824 2604 2512 1 
2825 2605 2511 1 
2826 2606 2511 1 
2827 2607 2511 1 
2828 2608 2509 1 
2829 2609 2509 1 
2830 2610 2508 1 
2831 2611 2508 1 
2832 2612 2506 1 
2833 2613 2503 1 
2834 2614 2503 1 
2835 2615 2502 1 
2836 2616 2502 1 
2837 2617 2501 1 
2838 2618 2501 1 
2839 2619 2647 1 
2840 2619 2635 1 
2841 2619 2636 1 
2842 2619 2645 1 
2843 2620 2736 1 
2844 2620 2737 1 
2845 2621 2620 1 
2846 2621 2734 1 
2847 2621 2735 1 
2848 2622 2620 1 
2849 2622 2732 1 
2850 2622 2733 1 
2851 2623 2621 1 
2852 2623 2640 1 
2853 2624 2639 2 
2854 2625 2623 1 
2855 2625 2622 1 
2856 2625 2731 1 
2857 2625 2639 1 
2858 2626 2640 2 
2859 2627 2729 1 
2860 2627 2730 1 
2861 2628 2727 1 
2862 2628 2728 1 
2863 2629 2628 1 
2864 2629 2640 1 
2865 2629 2627 1 
2866 2629 2641 1 
2867 2630 2644 1 
2868 2630 2724 1 
2869 2630 2725 1 
2870 2630 2726 1 
2871 2631 2628 1 
2872 2631 2723 1 
2873 2631 2646 1 
2874 2632 2645 2 
2875 2633 2646 2 
2876 2634 2627 1 
2877 2634 2631 1 
2878 2634 2645 1 
2879 2635 2663 1 
2880 2635 2721 1 
2881 2635 2722 1 
2882 2636 2719 1 
2883 2636 2720 1 
2884 2636 2662 1 
2885 2637 2650 2 
2886 2638 2666 2 
2887 2641 2639 1 
2888 2642 2641 1 
2889 2642 2717 1 
2890 2642 2718 1 
2891 2643 2714 1 
2892 2643 2715 1 
2893 2643 2716 1 
2894 2644 2643 1 
2895 2644 2642 1 
2896 2644 2713 1 
2897 2647 2646 1 
2898 2648 2647 1 
2899 2648 2711 1 
2900 2648 2712 1 
2901 2650 2649 1 
2902 2650 2648 1 
2903 2652 2709 1 
2904 2652 2710 1 
2905 2653 2708 1 
2906 2654 2707 1 
2907 2655 2652 1 
2908 2655 2653 1 
2909 2655 2654 2 
2910 2656 2651 1 
2911 2656 2706 1 
2912 2657 2653 2 
2913 2657 2651 1 
2914 2657 2705 1 
2915 2658 2651 2 
2916 2658 2654 1 
2917 2659 2658 1 
2918 2659 2704 1 
2919 2660 2659 2 
2920 2660 2703 1 
2921 2661 2656 2 
2922 2661 2660 1 
2923 2661 2702 1 
2924 2662 2652 1 
2925 2662 2666 1 
2926 2662 2663 1 
2927 2667 2663 1 
2928 2667 2664 2 
2929 2667 2665 1 
2930 2668 2666 1 
2931 2668 2665 1 
2932 2669 2668 1 
2933 2669 2700 1 
2934 2669 2701 1 
2935 2669 2678 1 
2936 2670 2684 1 
2937 2670 2665 1 
2938 2670 2698 1 
2939 2670 2699 1 
2940 2671 2665 1 
2941 2671 2696 1 
2942 2671 2697 1 
2943 2672 2671 1 
2944 2672 2694 1 
2945 2672 2695 1 
2946 2673 2672 1 
2947 2673 2684 1 
2948 2674 2680 1 
2949 2674 2675 2 
2950 2674 2679 1 
2951 2675 2693 1 
2952 2676 2692 1 
2953 2677 2676 1 
2954 2677 2691 1 
2955 2678 2676 2 
2956 2678 2675 1 
2957 2679 2690 1 
2958 2680 2677 2 
2959 2681 2680 1 
2960 2681 2689 1 
2961 2682 2681 2 
2962 2682 2688 1 
2963 2683 2679 2 
2964 2683 2682 1 
2965 2683 2687 1 
2966 2685 2684 1 
2967 2686 2684 1 
2968 2738 2766 1 
2969 2738 2754 1 
2970 2738 2755 1 
2971 2738 2764 1 
2972 2739 2855 1 
2973 2739 2856 1 
2974 2740 2739 1 
2975 2740 2853 1 
2976 2740 2854 1 
2977 2741 2739 1 
2978 2741 2851 1 
2979 2741 2852 1 
2980 2742 2740 1 
2981 2742 2759 1 
2982 2743 2758 2 
2983 2744 2742 1 
2984 2744 2741 1 
2985 2744 2850 1 
2986 2744 2758 1 
2987 2745 2759 2 
2988 2746 2753 1 
2989 2746 2848 1 
2990 2746 2849 1 
2991 2746 2748 1 
2992 2747 2846 1 
2993 2747 2847 1 
2994 2748 2747 1 
2995 2748 2759 1 
2996 2748 2760 1 
2997 2749 2763 1 
2998 2749 2843 1 
2999 2749 2844 1 
3000 2749 2845 1 
3001 2750 2747 1 
3002 2750 2842 1 
3003 2750 2765 1 
3004 2751 2764 2 
3005 2752 2765 2 
3006 2753 2750 1 
3007 2753 2764 1 
3008 2754 2782 1 
3009 2754 2840 1 
3010 2754 2841 1 
3011 2755 2838 1 
3012 2755 2839 1 
3013 2755 2781 1 
3014 2756 2769 2 
3015 2757 2785 2 
3016 2758 2760 1 
3017 2761 2760 1 
3018 2761 2836 1 
3019 2761 2837 1 
3020 2762 2833 1 
3021 2762 2834 1 
3022 2762 2835 1 
3023 2763 2762 1 
3024 2763 2761 1 
3025 2763 2832 1 
3026 2766 2765 1 
3027 2767 2766 1 
3028 2767 2830 1 
3029 2767 2831 1 
3030 2769 2768 1 
3031 2769 2767 1 
3032 2770 2777 2 
3033 2770 2775 1 
3034 2770 2776 1 
3035 2771 2828 1 
3036 2771 2829 1 
3037 2772 2827 1 
3038 2773 2826 1 
3039 2774 2771 1 
3040 2774 2772 1 
3041 2774 2773 2 
3042 2775 2825 1 
3043 2776 2772 2 
3044 2776 2824 1 
3045 2777 2773 1 
3046 2778 2777 1 
3047 2778 2823 1 
3048 2779 2778 2 
3049 2779 2822 1 
3050 2780 2775 2 
3051 2780 2779 1 
3052 2780 2821 1 
3053 2781 2771 1 
3054 2781 2785 1 
3055 2782 2781 1 
3056 2782 2786 1 
3057 2786 2783 2 
3058 2786 2784 1 
3059 2787 2785 1 
3060 2787 2784 1 
3061 2788 2787 1 
3062 2788 2819 1 
3063 2788 2820 1 
3064 2788 2797 1 
3065 2789 2803 1 
3066 2789 2784 1 
3067 2789 2817 1 
3068 2789 2818 1 
3069 2790 2784 1 
3070 2790 2815 1 
3071 2790 2816 1 
3072 2791 2790 1 
3073 2791 2813 1 
3074 2791 2814 1 
3075 2792 2791 1 
3076 2792 2803 1 
3077 2793 2799 1 
3078 2793 2798 1 
3079 2794 2793 2 
3080 2794 2812 1 
3081 2794 2797 1 
3082 2795 2811 1 
3083 2796 2795 1 
3084 2796 2810 1 
3085 2797 2795 2 
3086 2798 2809 1 
3087 2799 2796 2 
3088 2800 2799 1 
3089 2800 2808 1 
3090 2801 2800 2 
3091 2801 2807 1 
3092 2802 2798 2 
3093 2802 2801 1 
3094 2804 2803 1 
3095 2805 2803 1 
3096 2806 2802 1 
3097 2857 2885 1 
3098 2857 2873 1 
3099 2857 2874 1 
3100 2857 2883 1 
3101 2858 2974 1 
3102 2858 2975 1 
3103 2859 2858 1 
3104 2859 2972 1 
3105 2859 2973 1 
3106 2860 2858 1 
3107 2860 2970 1 
3108 2860 2971 1 
3109 2861 2859 1 
3110 2861 2878 1 
3111 2862 2877 2 
3112 2863 2861 1 
3113 2863 2860 1 
3114 2863 2969 1 
3115 2863 2877 1 
3116 2864 2878 2 
3117 2865 2872 1 
3118 2865 2967 1 
3119 2865 2968 1 
3120 2865 2867 1 
3121 2866 2867 1 
3122 2866 2869 1 
3123 2866 2965 1 
3124 2866 2966 1 
3125 2867 2879 1 
3126 2868 2882 1 
3127 2868 2962 1 
3128 2868 2963 1 
3129 2868 2964 1 
3130 2869 2961 1 
3131 2869 2884 1 
3132 2870 2883 2 
3133 2871 2884 2 
3134 2872 2869 1 
3135 2872 2883 1 
3136 2873 2901 1 
3137 2873 2959 1 
3138 2873 2960 1 
3139 2874 2957 1 
3140 2874 2958 1 
3141 2874 2900 1 
3142 2875 2888 2 
3143 2876 2904 2 
3144 2877 2879 1 
3145 2878 2867 1 
3146 2880 2879 1 
3147 2880 2955 1 
3148 2880 2956 1 
3149 2881 2952 1 
3150 2881 2953 1 
3151 2881 2954 1 
3152 2882 2881 1 
3153 2882 2880 1 
3154 2882 2951 1 
3155 2885 2884 1 
3156 2886 2885 1 
3157 2886 2949 1 
3158 2886 2950 1 
3159 2888 2887 1 
3160 2888 2886 1 
3161 2889 2896 2 
3162 2889 2894 1 
3163 2889 2895 1 
3164 2890 2893 1 
3165 2890 2947 1 
3166 2890 2948 1 
3167 2890 2900 1 
3168 2891 2946 1 
3169 2892 2945 1 
3170 2893 2891 1 
3171 2893 2892 2 
3172 2894 2944 1 
3173 2895 2891 2 
3174 2895 2943 1 
3175 2896 2892 1 
3176 2897 2896 1 
3177 2897 2942 1 
3178 2898 2897 2 
3179 2898 2941 1 
3180 2899 2894 2 
3181 2899 2898 1 
3182 2899 2940 1 
3183 2900 2904 1 
3184 2901 2900 1 
3185 2901 2905 1 
3186 2902 2905 2 
3187 2905 2903 1 
3188 2906 2904 1 
3189 2906 2903 1 
3190 2907 2906 1 
3191 2907 2938 1 
3192 2907 2939 1 
3193 2907 2916 1 
3194 2908 2922 1 
3195 2908 2903 1 
3196 2908 2936 1 
3197 2908 2937 1 
3198 2909 2903 1 
3199 2909 2934 1 
3200 2909 2935 1 
3201 2910 2909 1 
3202 2910 2932 1 
3203 2910 2933 1 
3204 2911 2910 1 
3205 2911 2922 1 
3206 2912 2918 1 
3207 2912 2917 1 
3208 2913 2912 2 
3209 2913 2931 1 
3210 2913 2916 1 
3211 2914 2916 2 
3212 2914 2915 1 
3213 2914 2930 1 
3214 2915 2929 1 
3215 2917 2928 1 
3216 2918 2915 2 
3217 2919 2918 1 
3218 2919 2927 1 
3219 2920 2919 2 
3220 2921 2917 2 
3221 2921 2920 1 
3222 2923 2922 1 
3223 2924 2922 1 
3224 2925 2921 1 
3225 2926 2920 1 
3226 2978 2977 1 
3227 2979 2977 1 
3228 2980 2978 1 
3229 2982 2980 1 
3230 2982 2979 1 
3231 2986 2985 1 
3232 2986 2984 1 
3233 2987 3001 1 
3234 2987 3081 1 
3235 2987 3082 1 
3236 2987 3083 1 
3237 2988 2985 1 
3238 2988 3080 1 
3239 2988 3003 1 
3240 2989 3002 2 
3241 2990 3003 2 
3242 2991 2984 1 
3243 2991 2988 1 
3244 2991 3002 1 
3245 2992 3020 1 
3246 2992 2976 1 
3247 2992 3078 1 
3248 2992 3079 1 
3249 2993 2976 1 
3250 2993 3076 1 
3251 2993 3077 1 
3252 2993 3019 1 
3253 2994 3007 2 
3254 2995 3023 2 
3255 2996 2982 1 
3256 2996 2981 2 
3257 2997 2986 1 
3258 2997 2980 1 
3259 2997 2983 2 
3260 2998 2996 1 
3261 2998 2986 1 
3262 2998 2999 1 
3263 2999 3074 1 
3264 2999 3075 1 
3265 3000 3071 1 
3266 3000 3072 1 
3267 3000 3073 1 
3268 3001 3000 1 
3269 3001 2999 1 
3270 3001 3070 1 
3271 3002 2976 1 
3272 3004 2976 1 
3273 3004 3003 1 
3274 3005 3004 1 
3275 3005 3068 1 
3276 3005 3069 1 
3277 3007 3006 1 
3278 3007 3005 1 
3279 3008 3015 2 
3280 3008 3013 1 
3281 3008 3014 1 
3282 3009 3012 1 
3283 3009 3066 1 
3284 3009 3067 1 
3285 3009 3019 1 
3286 3010 3014 2 
3287 3010 3012 1 
3288 3010 3065 1 
3289 3011 3064 1 
3290 3012 3011 2 
3291 3013 3063 1 
3292 3014 3062 1 
3293 3015 3011 1 
3294 3016 3015 1 
3295 3016 3061 1 
3296 3017 3016 2 
3297 3017 3060 1 
3298 3018 3013 2 
3299 3018 3017 1 
3300 3018 3059 1 
3301 3019 3023 1 
3302 3020 3019 1 
3303 3020 3024 1 
3304 3021 3024 2 
3305 3022 3024 1 
3306 3022 3025 1 
3307 3022 3027 1 
3308 3022 3028 1 
3309 3025 3023 1 
3310 3026 3025 1 
3311 3026 3057 1 
3312 3026 3058 1 
3313 3026 3035 1 
3314 3027 3041 1 
3315 3027 3055 1 
3316 3027 3056 1 
3317 3028 3053 1 
3318 3028 3054 1 
3319 3029 3028 1 
3320 3029 3051 1 
3321 3029 3052 1 
3322 3030 3029 1 
3323 3030 3041 1 
3324 3031 3037 1 
3325 3031 3036 1 
3326 3032 3031 2 
3327 3032 3050 1 
3328 3032 3035 1 
3329 3033 3035 2 
3330 3033 3049 1 
3331 3034 3033 1 
3332 3034 3048 1 
3333 3034 3037 2 
3334 3036 3047 1 
3335 3038 3037 1 
3336 3039 3038 2 
3337 3040 3036 2 
3338 3040 3039 1 
3339 3042 3041 1 
3340 3043 3041 1 
3341 3044 3040 1 
3342 3045 3039 1 
3343 3046 3038 1 
3344 3084 2985 1 
3345 3085 2985 1 
3346 3086 2984 1 
3347 3087 2984 1 
3348 3088 2982 1 
3349 3089 2979 1 
3350 3090 2979 1 
3351 3091 2978 1 
3352 3092 2978 1 
3353 3093 2977 1 
3354 3094 2977 1 
3355 3095 3123 1 
3356 3095 3111 1 
3357 3095 3112 1 
3358 3095 3121 1 
3359 3096 3212 1 
3360 3096 3213 1 
3361 3097 3096 1 
3362 3097 3210 1 
3363 3097 3211 1 
3364 3098 3096 1 
3365 3098 3208 1 
3366 3098 3209 1 
3367 3099 3097 1 
3368 3099 3116 1 
3369 3100 3115 2 
3370 3101 3099 1 
3371 3101 3098 1 
3372 3101 3207 1 
3373 3101 3115 1 
3374 3102 3116 2 
3375 3103 3110 1 
3376 3103 3205 1 
3377 3103 3206 1 
3378 3104 3107 1 
3379 3104 3203 1 
3380 3104 3204 1 
3381 3105 3104 1 
3382 3105 3116 1 
3383 3105 3103 1 
3384 3105 3117 1 
3385 3106 3120 1 
3386 3106 3200 1 
3387 3106 3201 1 
3388 3106 3202 1 
3389 3107 3199 1 
3390 3107 3122 1 
3391 3108 3121 2 
3392 3109 3122 2 
3393 3110 3107 1 
3394 3110 3121 1 
3395 3111 3139 1 
3396 3111 3197 1 
3397 3111 3198 1 
3398 3112 3195 1 
3399 3112 3196 1 
3400 3112 3138 1 
3401 3113 3126 2 
3402 3114 3142 2 
3403 3117 3115 1 
3404 3118 3117 1 
3405 3118 3193 1 
3406 3118 3194 1 
3407 3118 3120 1 
3408 3119 3190 1 
3409 3119 3191 1 
3410 3119 3192 1 
3411 3120 3119 1 
3412 3120 3189 1 
3413 3123 3122 1 
3414 3124 3123 1 
3415 3124 3187 1 
3416 3124 3188 1 
3417 3126 3125 1 
3418 3126 3124 1 
3419 3127 3134 2 
3420 3127 3132 1 
3421 3127 3133 1 
3422 3128 3131 1 
3423 3128 3185 1 
3424 3128 3186 1 
3425 3128 3138 1 
3426 3129 3133 2 
3427 3129 3131 1 
3428 3129 3184 1 
3429 3130 3131 2 
3430 3130 3183 1 
3431 3130 3134 1 
3432 3132 3182 1 
3433 3133 3181 1 
3434 3135 3134 1 
3435 3135 3180 1 
3436 3136 3135 2 
3437 3136 3179 1 
3438 3137 3132 2 
3439 3137 3136 1 
3440 3137 3178 1 
3441 3139 3138 1 
3442 3139 3143 1 
3443 3140 3143 2 
3444 3141 3143 1 
3445 3141 3144 1 
3446 3141 3146 1 
3447 3141 3147 1 
3448 3142 3138 1 
3449 3142 3144 1 
3450 3145 3144 1 
3451 3145 3176 1 
3452 3145 3177 1 
3453 3146 3160 1 
3454 3146 3174 1 
3455 3146 3175 1 
3456 3147 3172 1 
3457 3147 3173 1 
3458 3148 3147 1 
3459 3148 3170 1 
3460 3148 3171 1 
3461 3149 3148 1 
3462 3149 3160 1 
3463 3150 3156 1 
3464 3150 3155 1 
3465 3151 3150 2 
3466 3151 3169 1 
3467 3152 3168 1 
3468 3153 3152 1 
3469 3153 3167 1 
3470 3153 3156 2 
3471 3154 3152 2 
3472 3154 3145 1 
3473 3154 3151 1 
3474 3157 3156 1 
3475 3158 3157 2 
3476 3159 3155 2 
3477 3159 3158 1 
3478 3161 3160 1 
3479 3162 3160 1 
3480 3163 3159 1 
3481 3164 3158 1 
3482 3165 3157 1 
3483 3166 3155 1 
3484 3215 3331 1 
3485 3215 3332 1 
3486 3216 3215 1 
3487 3216 3329 1 
3488 3216 3330 1 
3489 3217 3215 1 
3490 3217 3327 1 
3491 3217 3328 1 
3492 3218 3216 1 
3493 3218 3235 1 
3494 3219 3234 2 
3495 3220 3218 1 
3496 3220 3217 1 
3497 3220 3326 1 
3498 3220 3234 1 
3499 3221 3235 2 
3500 3222 3229 1 
3501 3222 3324 1 
3502 3222 3325 1 
3503 3223 3322 1 
3504 3223 3323 1 
3505 3224 3223 1 
3506 3224 3235 1 
3507 3224 3222 1 
3508 3224 3236 1 
3509 3225 3239 1 
3510 3225 3319 1 
3511 3225 3320 1 
3512 3225 3321 1 
3513 3226 3223 1 
3514 3226 3318 1 
3515 3226 3229 1 
3516 3226 3241 1 
3517 3227 3240 2 
3518 3228 3241 2 
3519 3229 3240 1 
3520 3230 3258 1 
3521 3230 3214 1 
3522 3230 3316 1 
3523 3230 3317 1 
3524 3231 3214 1 
3525 3231 3314 1 
3526 3231 3315 1 
3527 3231 3257 1 
3528 3232 3245 2 
3529 3233 3261 2 
3530 3236 3234 1 
3531 3237 3236 1 
3532 3237 3312 1 
3533 3237 3313 1 
3534 3237 3239 1 
3535 3238 3239 1 
3536 3238 3309 1 
3537 3238 3310 1 
3538 3238 3311 1 
3539 3239 3308 1 
3540 3240 3214 1 
3541 3242 3214 1 
3542 3242 3241 1 
3543 3243 3242 1 
3544 3243 3306 1 
3545 3243 3307 1 
3546 3245 3244 1 
3547 3245 3243 1 
3548 3246 3253 2 
3549 3246 3251 1 
3550 3246 3252 1 
3551 3247 3304 1 
3552 3247 3305 1 
3553 3247 3257 1 
3554 3248 3252 2 
3555 3248 3303 1 
3556 3249 3302 1 
3557 3249 3253 1 
3558 3250 3247 1 
3559 3250 3248 1 
3560 3250 3249 2 
3561 3251 3301 1 
3562 3252 3300 1 
3563 3254 3253 1 
3564 3254 3299 1 
3565 3255 3254 2 
3566 3255 3298 1 
3567 3256 3251 2 
3568 3256 3255 1 
3569 3256 3297 1 
3570 3258 3257 1 
3571 3260 3263 1 
3572 3260 3265 1 
3573 3260 3266 1 
3574 3261 3257 1 
3575 3261 3263 1 
3576 3262 3258 1 
3577 3262 3259 2 
3578 3262 3260 1 
3579 3264 3263 1 
3580 3264 3295 1 
3581 3264 3296 1 
3582 3265 3279 1 
3583 3265 3293 1 
3584 3265 3294 1 
3585 3266 3291 1 
3586 3266 3292 1 
3587 3267 3266 1 
3588 3267 3289 1 
3589 3267 3290 1 
3590 3268 3267 1 
3591 3268 3279 1 
3592 3269 3275 1 
3593 3270 3269 2 
3594 3270 3288 1 
3595 3271 3287 1 
3596 3272 3271 1 
3597 3272 3286 1 
3598 3272 3275 2 
3599 3273 3271 2 
3600 3273 3264 1 
3601 3273 3270 1 
3602 3274 3278 2 
3603 3274 3269 1 
3604 3274 3285 1 
3605 3276 3275 1 
3606 3277 3276 2 
3607 3278 3277 1 
3608 3280 3279 1 
3609 3281 3279 1 
3610 3282 3278 1 
3611 3283 3277 1 
3612 3284 3276 1 
3613 3333 3361 1 
3614 3333 3349 1 
3615 3333 3350 1 
3616 3333 3359 1 
3617 3334 3336 1 
3618 3334 3450 1 
3619 3334 3451 1 
3620 3334 3335 1 
3621 3335 3448 1 
3622 3335 3449 1 
3623 3336 3446 1 
3624 3336 3447 1 
3625 3337 3335 1 
3626 3337 3354 1 
3627 3338 3353 2 
3628 3339 3337 1 
3629 3339 3336 1 
3630 3339 3445 1 
3631 3339 3353 1 
3632 3340 3354 2 
3633 3341 3348 1 
3634 3341 3443 1 
3635 3341 3444 1 
3636 3342 3441 1 
3637 3342 3442 1 
3638 3343 3342 1 
3639 3343 3354 1 
3640 3343 3341 1 
3641 3343 3355 1 
3642 3344 3358 1 
3643 3344 3438 1 
3644 3344 3439 1 
3645 3344 3440 1 
3646 3345 3342 1 
3647 3345 3437 1 
3648 3345 3348 1 
3649 3345 3360 1 
3650 3346 3359 2 
3651 3347 3360 2 
3652 3348 3359 1 
3653 3349 3377 1 
3654 3349 3435 1 
3655 3349 3436 1 
3656 3350 3433 1 
3657 3350 3434 1 
3658 3350 3376 1 
3659 3351 3364 2 
3660 3352 3380 2 
3661 3355 3353 1 
3662 3356 3355 1 
3663 3356 3431 1 
3664 3356 3432 1 
3665 3357 3428 1 
3666 3357 3429 1 
3667 3357 3430 1 
3668 3358 3357 1 
3669 3358 3356 1 
3670 3358 3427 1 
3671 3361 3360 1 
3672 3362 3361 1 
3673 3362 3425 1 
3674 3362 3426 1 
3675 3364 3363 1 
3676 3364 3362 1 
3677 3365 3372 2 
3678 3365 3371 1 
3679 3366 3423 1 
3680 3366 3424 1 
3681 3366 3376 1 
3682 3367 3371 2 
3683 3367 3422 1 
3684 3368 3421 1 
3685 3368 3372 1 
3686 3369 3366 1 
3687 3369 3367 1 
3688 3369 3368 2 
3689 3370 3375 2 
3690 3370 3365 1 
3691 3370 3420 1 
3692 3371 3419 1 
3693 3373 3372 1 
3694 3373 3418 1 
3695 3374 3373 2 
3696 3374 3417 1 
3697 3375 3374 1 
3698 3375 3416 1 
3699 3377 3376 1 
3700 3379 3384 1 
3701 3379 3385 1 
3702 3380 3376 1 
3703 3381 3377 1 
3704 3381 3378 2 
3705 3381 3379 1 
3706 3382 3380 1 
3707 3382 3379 1 
3708 3382 3383 1 
3709 3383 3414 1 
3710 3383 3415 1 
3711 3384 3398 1 
3712 3384 3412 1 
3713 3384 3413 1 
3714 3385 3410 1 
3715 3385 3411 1 
3716 3386 3385 1 
3717 3386 3408 1 
3718 3386 3409 1 
3719 3387 3386 1 
3720 3387 3398 1 
3721 3389 3388 2 
3722 3389 3407 1 
3723 3390 3406 1 
3724 3391 3390 1 
3725 3391 3405 1 
3726 3392 3390 2 
3727 3392 3383 1 
3728 3392 3389 1 
3729 3393 3397 2 
3730 3393 3388 1 
3731 3393 3404 1 
3732 3394 3388 1 
3733 3394 3391 2 
3734 3394 3395 1 
3735 3396 3395 2 
3736 3397 3396 1 
3737 3399 3398 1 
3738 3400 3398 1 
3739 3401 3397 1 
3740 3402 3396 1 
3741 3403 3395 1 
3742 3454 3453 1 
3743 3455 3453 1 
3744 3455 3565 1 
3745 3455 3566 1 
3746 3456 3454 1 
3747 3456 3473 1 
3748 3457 3472 2 
3749 3458 3456 1 
3750 3458 3455 1 
3751 3458 3564 1 
3752 3458 3472 1 
3753 3459 3473 2 
3754 3460 3467 1 
3755 3460 3562 1 
3756 3460 3563 1 
3757 3461 3560 1 
3758 3461 3561 1 
3759 3462 3461 1 
3760 3462 3473 1 
3761 3462 3460 1 
3762 3462 3474 1 
3763 3463 3477 1 
3764 3463 3557 1 
3765 3463 3558 1 
3766 3463 3559 1 
3767 3464 3461 1 
3768 3464 3556 1 
3769 3464 3467 1 
3770 3464 3479 1 
3771 3465 3478 2 
3772 3466 3479 2 
3773 3468 3496 1 
3774 3468 3452 1 
3775 3468 3554 1 
3776 3468 3555 1 
3777 3469 3452 1 
3778 3469 3552 1 
3779 3469 3553 1 
3780 3469 3495 1 
3781 3470 3483 2 
3782 3471 3499 2 
3783 3474 3472 1 
3784 3475 3474 1 
3785 3475 3550 1 
3786 3475 3551 1 
3787 3476 3547 1 
3788 3476 3548 1 
3789 3476 3549 1 
3790 3477 3476 1 
3791 3477 3475 1 
3792 3477 3546 1 
3793 3478 3452 1 
3794 3478 3467 1 
3795 3480 3452 1 
3796 3480 3479 1 
3797 3481 3480 1 
3798 3481 3544 1 
3799 3481 3545 1 
3800 3483 3482 1 
3801 3483 3481 1 
3802 3484 3491 2 
3803 3485 3542 1 
3804 3485 3543 1 
3805 3485 3495 1 
3806 3486 3541 1 
3807 3487 3540 1 
3808 3487 3491 1 
3809 3488 3485 1 
3810 3488 3486 1 
3811 3488 3487 2 
3812 3489 3494 2 
3813 3489 3484 1 
3814 3489 3539 1 
3815 3490 3486 2 
3816 3490 3484 1 
3817 3490 3538 1 
3818 3492 3491 1 
3819 3492 3537 1 
3820 3493 3492 2 
3821 3493 3536 1 
3822 3494 3493 1 
3823 3494 3535 1 
3824 3496 3495 1 
3825 3498 3503 1 
3826 3498 3504 1 
3827 3499 3495 1 
3828 3500 3496 1 
3829 3500 3497 2 
3830 3500 3498 1 
3831 3501 3499 1 
3832 3501 3498 1 
3833 3502 3501 1 
3834 3502 3533 1 
3835 3502 3534 1 
3836 3502 3511 1 
3837 3503 3517 1 
3838 3503 3531 1 
3839 3503 3532 1 
3840 3504 3529 1 
3841 3504 3530 1 
3842 3505 3504 1 
3843 3505 3527 1 
3844 3505 3528 1 
3845 3506 3505 1 
3846 3506 3517 1 
3847 3508 3507 2 
3848 3508 3526 1 
3849 3509 3525 1 
3850 3510 3509 1 
3851 3510 3524 1 
3852 3511 3509 2 
3853 3511 3508 1 
3854 3512 3516 2 
3855 3512 3507 1 
3856 3512 3523 1 
3857 3513 3507 1 
3858 3513 3510 2 
3859 3514 3513 1 
3860 3514 3522 1 
3861 3514 3515 2 
3862 3516 3515 1 
3863 3518 3517 1 
3864 3519 3517 1 
3865 3520 3516 1 
3866 3521 3515 1 
3867 3567 3454 1 
3868 3568 3454 1 
3869 3569 3453 1 
3870 3570 3453 1 
3871 3571 3599 1 
3872 3571 3587 1 
3873 3571 3588 1 
3874 3571 3597 1 
3875 3572 3688 1 
3876 3572 3689 1 
3877 3573 3572 1 
3878 3573 3686 1 
3879 3573 3687 1 
3880 3573 3575 1 
3881 3574 3572 1 
3882 3574 3684 1 
3883 3574 3685 1 
3884 3574 3577 1 
3885 3575 3592 1 
3886 3576 3591 2 
3887 3577 3575 1 
3888 3577 3683 1 
3889 3577 3591 1 
3890 3578 3592 2 
3891 3579 3681 1 
3892 3579 3682 1 
3893 3580 3679 1 
3894 3580 3680 1 
3895 3581 3580 1 
3896 3581 3592 1 
3897 3581 3579 1 
3898 3581 3593 1 
3899 3582 3596 1 
3900 3582 3676 1 
3901 3582 3677 1 
3902 3582 3678 1 
3903 3583 3580 1 
3904 3583 3675 1 
3905 3583 3598 1 
3906 3584 3597 2 
3907 3585 3598 2 
3908 3586 3579 1 
3909 3586 3583 1 
3910 3586 3597 1 
3911 3587 3615 1 
3912 3587 3673 1 
3913 3587 3674 1 
3914 3588 3671 1 
3915 3588 3672 1 
3916 3588 3614 1 
3917 3589 3602 2 
3918 3590 3618 2 
3919 3593 3591 1 
3920 3594 3593 1 
3921 3594 3669 1 
3922 3594 3670 1 
3923 3595 3666 1 
3924 3595 3667 1 
3925 3595 3668 1 
3926 3596 3595 1 
3927 3596 3594 1 
3928 3596 3665 1 
3929 3598 3599 1 
3930 3600 3599 1 
3931 3600 3663 1 
3932 3600 3664 1 
3933 3602 3601 1 
3934 3602 3600 1 
3935 3604 3661 1 
3936 3604 3662 1 
3937 3604 3614 1 
3938 3605 3660 1 
3939 3606 3659 1 
3940 3607 3604 1 
3941 3607 3605 1 
3942 3607 3606 2 
3943 3608 3613 2 
3944 3608 3603 1 
3945 3608 3658 1 
3946 3609 3605 2 
3947 3609 3603 1 
3948 3609 3657 1 
3949 3610 3603 2 
3950 3610 3606 1 
3951 3610 3611 1 
3952 3611 3656 1 
3953 3612 3611 2 
3954 3612 3655 1 
3955 3613 3612 1 
3956 3613 3654 1 
3957 3615 3614 1 
3958 3617 3623 1 
3959 3618 3614 1 
3960 3619 3615 1 
3961 3619 3616 2 
3962 3619 3617 1 
3963 3620 3618 1 
3964 3620 3617 1 
3965 3621 3620 1 
3966 3621 3652 1 
3967 3621 3653 1 
3968 3621 3630 1 
3969 3622 3636 1 
3970 3622 3617 1 
3971 3622 3650 1 
3972 3622 3651 1 
3973 3623 3648 1 
3974 3623 3649 1 
3975 3624 3623 1 
3976 3624 3646 1 
3977 3624 3647 1 
3978 3625 3624 1 
3979 3625 3636 1 
3980 3627 3626 2 
3981 3627 3645 1 
3982 3628 3644 1 
3983 3629 3628 1 
3984 3629 3643 1 
3985 3630 3628 2 
3986 3630 3627 1 
3987 3631 3635 2 
3988 3631 3626 1 
3989 3631 3642 1 
3990 3632 3626 1 
3991 3632 3629 2 
3992 3633 3632 1 
3993 3633 3641 1 
3994 3634 3633 2 
3995 3634 3635 1 
3996 3634 3640 1 
3997 3637 3636 1 
3998 3638 3636 1 
3999 3639 3635 1 
4000 3690 3718 1 
4001 3690 3706 1 
4002 3690 3707 1 
4003 3690 3716 1 
4004 3691 3807 1 
4005 3691 3808 1 
4006 3692 3691 1 
4007 3692 3805 1 
4008 3692 3806 1 
4009 3693 3691 1 
4010 3693 3803 1 
4011 3693 3804 1 
4012 3693 3696 1 
4013 3694 3692 1 
4014 3694 3696 1 
4015 3694 3711 1 
4016 3695 3710 2 
4017 3696 3802 1 
4018 3696 3710 1 
4019 3697 3711 2 
4020 3698 3800 1 
4021 3698 3801 1 
4022 3699 3798 1 
4023 3699 3799 1 
4024 3700 3699 1 
4025 3700 3711 1 
4026 3700 3698 1 
4027 3700 3712 1 
4028 3701 3715 1 
4029 3701 3795 1 
4030 3701 3796 1 
4031 3701 3797 1 
4032 3702 3699 1 
4033 3702 3794 1 
4034 3702 3717 1 
4035 3703 3716 2 
4036 3704 3717 2 
4037 3705 3698 1 
4038 3705 3702 1 
4039 3705 3716 1 
4040 3706 3734 1 
4041 3706 3792 1 
4042 3706 3793 1 
4043 3707 3790 1 
4044 3707 3791 1 
4045 3707 3733 1 
4046 3708 3721 2 
4047 3709 3737 2 
4048 3712 3710 1 
4049 3713 3712 1 
4050 3713 3788 1 
4051 3713 3789 1 
4052 3714 3785 1 
4053 3714 3786 1 
4054 3714 3787 1 
4055 3715 3714 1 
4056 3715 3713 1 
4057 3715 3784 1 
4058 3718 3717 1 
4059 3718 3719 1 
4060 3719 3782 1 
4061 3719 3783 1 
4062 3721 3720 1 
4063 3721 3719 1 
4064 3723 3780 1 
4065 3723 3781 1 
4066 3723 3733 1 
4067 3724 3779 1 
4068 3725 3778 1 
4069 3726 3723 1 
4070 3726 3724 1 
4071 3726 3725 2 
4072 3727 3732 2 
4073 3727 3722 1 
4074 3727 3777 1 
4075 3728 3724 2 
4076 3728 3722 1 
4077 3728 3776 1 
4078 3729 3722 2 
4079 3729 3725 1 
4080 3730 3729 1 
4081 3730 3775 1 
4082 3730 3731 2 
4083 3731 3774 1 
4084 3732 3731 1 
4085 3732 3773 1 
4086 3734 3733 1 
4087 3737 3733 1 
4088 3738 3734 1 
4089 3738 3735 2 
4090 3738 3736 1 
4091 3739 3737 1 
4092 3739 3736 1 
4093 3740 3739 1 
4094 3740 3771 1 
4095 3740 3772 1 
4096 3740 3749 1 
4097 3741 3755 1 
4098 3741 3736 1 
4099 3741 3769 1 
4100 3741 3770 1 
4101 3742 3736 1 
4102 3742 3767 1 
4103 3742 3768 1 
4104 3742 3743 1 
4105 3743 3765 1 
4106 3743 3766 1 
4107 3744 3743 1 
4108 3744 3755 1 
4109 3746 3745 2 
4110 3746 3764 1 
4111 3747 3763 1 
4112 3748 3747 1 
4113 3748 3762 1 
4114 3749 3747 2 
4115 3749 3746 1 
4116 3750 3745 1 
4117 3750 3761 1 
4118 3751 3745 1 
4119 3751 3748 2 
4120 3752 3751 1 
4121 3752 3760 1 
4122 3753 3752 2 
4123 3753 3759 1 
4124 3754 3750 2 
4125 3754 3753 1 
4126 3754 3758 1 
4127 3756 3755 1 
4128 3757 3755 1 
@<TRIPOS>SUBSTRUCTURE
1 CKW::FUZI_1 1 RESIDUE 1 A CKW::FUZI 1
2 CKW::FUZI_2 120 RESIDUE 1 B CKW::FUZI 1
3 CKW::FUZI_3 239 RESIDUE 1 C CKW::FUZI 1
4 CKW::FUZI_4 358 RESIDUE 1 D CKW::FUZI 1
5 CKW::FUZI_5 477 RESIDUE 1 E CKW::FUZI 1
6 CKW::FUZI_6 596 RESIDUE 1 F CKW::FUZI 1
7 CKW::FUZI_7 715 RESIDUE 1 G CKW::FUZI 1
8 CKW::FUZI_8 834 RESIDUE 1 H CKW::FUZI 1
9 CKW::FUZI_9 953 RESIDUE 1 I CKW::FUZI 1
10 CKW::FUZI_10 1072 RESIDUE 1 J CKW::FUZI 1
11 CKW::FUZI_11 1191 RESIDUE 1 K CKW::FUZI 1
12 CKW::FUZI_12 1310 RESIDUE 1 L CKW::FUZI 1
13 CKW::FUZI_13 1429 RESIDUE 1 M CKW::FUZI 1
14 CKW::FUZI_14 1548 RESIDUE 1 N CKW::FUZI 1
15 CKW::FUZI_15 1667 RESIDUE 1 O CKW::FUZI 1
16 CKW::FUZI_16 1786 RESIDUE 1 P CKW::FUZI 1
17 CKW::FUZI_17 1905 RESIDUE 1 Q CKW::FUZI 1
18 CKW::FUZI_18 2024 RESIDUE 1 R CKW::FUZI 1
19 CKW::FUZI_19 2143 RESIDUE 1 S CKW::FUZI 1
20 CKW::FUZI_20 2262 RESIDUE 1 T CKW::FUZI 1
21 CKW::FUZI_21 2381 RESIDUE 1 U CKW::FUZI 1
22 CKW::FUZI_22 2500 RESIDUE 1 V CKW::FUZI 1
23 CKW::FUZI_23 2619 RESIDUE 1 W CKW::FUZI 1
24 CKW::FUZI_24 2738 RESIDUE 1 X CKW::FUZI 1
25 CKW::FUZI_25 2857 RESIDUE 1 Y CKW::FUZI 1
26 CKW::FUZI_26 2976 RESIDUE 1 Z CKW::FUZI 1
27 CKW::FUZI_27 3095 RESIDUE 1 [ CKW::FUZI 1
28 CKW::FUZI_28 3214 RESIDUE 1 \ CKW::FUZI 1
29 CKW::FUZI_29 3333 RESIDUE 1 ] CKW::FUZI 1
30 CKW::FUZI_30 3452 RESIDUE 1 ^ CKW::FUZI 1
31 CKW::FUZI_31 3571 RESIDUE 1 _ CKW::FUZI 1
32 CKW::FUZI_32 3690 RESIDUE 1 ` CKW::FUZI 1
