@<TRIPOS>MOLECULE
COMMON-LISP:NIL
119 129 1 0 0
POLYMER
CHARGES


@<TRIPOS>ATOM
1 C.b 0.861252 2.3544 1.24927 C.3 1 FUZI_1    0.000
2 C_28893 6.367 -2.297 7.566 C.3 1 FUZI_1    0.000
3 C_28894 6.604 -1.449 6.305 C.3 1 FUZI_1    0.000
4 C_28892 4.953 -2.858 7.372 C.3 1 FUZI_1    0.000
5 N 5.280 -1.128 5.756 N.am 1 FUZI_1    0.000
6 O 2.299 -3.064 6.240 O.2 1 FUZI_1    0.000
7 C.e 4.246 -1.745 6.580 C.3 1 FUZI_1    0.000
8 O 5.948 0.166 4.072 O.2 1 FUZI_1    0.000
9 C_28904 3.533 -0.070 2.618 C.3 1 FUZI_1    0.000
10 C_28901 2.897 0.875 4.723 C.3 1 FUZI_1    0.000
11 C.d 3.584 -0.387 4.145 C.3 1 FUZI_1    0.000
12 C_28918 0.503 -3.854 2.395 C.3 1 FUZI_1    0.000
13 C.c 1.850 1.265 3.669 C.3 1 FUZI_1    0.000
14 O 2.498 0.912 0.164 O.2 1 FUZI_1    0.000
15 O 1.465 3.393 4.680 O.2 1 FUZI_1    0.000
16 N 2.415 0.853 2.390 N.am 1 FUZI_1    0.000
17 C_28912 0.751 3.060 -0.130 C.3 1 FUZI_1    0.000
18 C_28909 -0.486 1.580 1.302 C.3 1 FUZI_1    0.000
19 O -1.486 4.537 3.041 O.co2 1 FUZI_1    0.000
20 O -2.373 -0.342 0.223 O.2 1 FUZI_1    0.000
21 C_28900 3.033 -2.202 5.794 C.2 1 FUZI_1    0.000
22 C_28897 5.038 -0.408 4.640 C.2 1 FUZI_1    0.000
23 N.d 2.822 -1.620 4.577 N.am 1 FUZI_1    0.000
24 C.d2 1.660 -2.064 3.754 C.3 1 FUZI_1    0.000
25 C_28917 3.004 -3.587 2.161 C.3 1 FUZI_1    0.000
26 C_28916 1.807 -3.478 3.129 C.3 1 FUZI_1    0.000
27 C_28908 1.986 1.308 1.194 C.2 1 FUZI_1    0.000
28 C_28905 1.423 2.721 3.667 C.2 1 FUZI_1    0.000
29 N.b 1.017 3.229 2.465 N.am 1 FUZI_1    0.000
30 C.b2 0.750 4.680 2.310 C.3 1 FUZI_1    0.000
31 OH -1.087 5.810 1.378 O.co2 1 FUZI_1    0.000
32 C_28922 -0.722 5.034 2.238 C.2 1 FUZI_1    0.000
33 C_28929 -4.639 2.683 -3.631 C.2 1 FUZI_1    0.000
34 C.a2 -2.334 2.605 -0.107 C.3 1 FUZI_1    0.000
35 C_28931 -2.700 3.226 -2.489 C.2 1 FUZI_1    0.000
36 C_28927 -4.362 2.047 -1.419 C.2 1 FUZI_1    0.000
37 C_28926 -3.152 2.617 -1.389 C.2 1 FUZI_1    0.000
38 C_28935 -5.387 2.713 -4.739 C.2 1 FUZI_1    0.000
39 C_28930 -3.431 3.253 -3.603 C.2 1 FUZI_1    0.000
40 C_28928 -5.112 2.080 -2.525 C.2 1 FUZI_1    0.000
41 C_28932 -6.330 1.528 -2.541 C.2 1 FUZI_1    0.000
42 C_28933 -7.071 1.566 -3.649 C.2 1 FUZI_1    0.000
43 C_28934 -6.599 2.155 -4.748 C.2 1 FUZI_1    0.000
44 C.a -1.115 1.628 -0.121 C.3 1 FUZI_1    0.000
45 N -0.043 2.148 -0.966 N.am 1 FUZI_1    0.000
46 O 1.278 2.218 -2.728 O.2 1 FUZI_1    0.000
47 C_28938 -0.158 0.269 -2.616 C.3 1 FUZI_1    0.000
48 C_28936 -1.623 0.255 -0.528 C.2 1 FUZI_1    0.000
49 C_28939 0.407 1.620 -2.126 C.2 1 FUZI_1    0.000
50 N.z -1.253 -0.275 -1.730 N.am 1 FUZI_1    0.000
51 C.z2 -1.825 -1.592 -2.140 C.3 1 FUZI_1    0.000
52 C_28975 1.042 -0.745 -2.610 C.3 1 FUZI_1    0.000
53 C_28944 -0.668 0.474 -4.086 C.3 1 FUZI_1    0.000
54 C_28945 0.446 0.647 -5.145 C.3 1 FUZI_1    0.000
55 NH 1.416 -0.470 -5.049 N.2 1 FUZI_1    0.000
56 C_28979 -5.426 -2.329 -1.534 C.2 1 FUZI_1    0.000
57 C_28980 -4.102 -2.230 -1.380 C.2 1 FUZI_1    0.000
58 C_28976 -3.919 -1.231 -3.443 C.2 1 FUZI_1    0.000
59 C_28977 -5.236 -1.335 -3.614 C.2 1 FUZI_1    0.000
60 C_28943 -3.334 -1.676 -2.325 C.2 1 FUZI_1    0.000
61 C_28984 -6.188 -2.873 -0.578 C.2 1 FUZI_1    0.000
62 C_28978 -6.000 -1.878 -2.664 C.2 1 FUZI_1    0.000
63 C_28981 -7.324 -1.977 -2.821 C.2 1 FUZI_1    0.000
64 C_28982 -8.075 -2.520 -1.862 C.2 1 FUZI_1    0.000
65 C_28983 -7.508 -2.967 -0.742 C.2 1 FUZI_1    0.000
66 C_28974 2.087 -0.520 -3.727 C.3 1 FUZI_1    0.000
67 H_289741 2.650 0.401 -3.564 H 1 FUZI_1    0.000
68 H_289742 2.796 -1.351 -3.725 H 1 FUZI_1    0.000
69 H_28983 -8.122 -3.410 0.038 H 1 FUZI_1    0.000
70 H_28982 -9.152 -2.598 -1.994 H 1 FUZI_1    0.000
71 H_28981 -7.800 -1.616 -3.730 H 1 FUZI_1    0.000
72 H_28984 -5.738 -3.243 0.341 H 1 FUZI_1    0.000
73 H_28977 -5.681 -0.967 -4.537 H 1 FUZI_1    0.000
74 H_28976 -3.329 -0.785 -4.235 H 1 FUZI_1    0.000
75 H_28980 -3.638 -2.607 -0.470 H 1 FUZI_1    0.000
76 H_289451 -0.006 0.633 -6.141 H 1 FUZI_1    0.000
77 H_289452 0.965 1.600 -5.028 H 1 FUZI_1    0.000
78 H_289441 -1.346 1.327 -4.129 H 1 FUZI_1    0.000
79 H_289442 -1.238 -0.388 -4.420 H 1 FUZI_1    0.000
80 H_289751 0.692 -1.770 -2.730 H 1 FUZI_1    0.000
81 H_289752 1.540 -0.719 -1.640 H 1 FUZI_1    0.000
82 H.z21 -1.528 -2.316 -1.375 H 1 FUZI_1    0.000
83 H.z22 -1.368 -1.946 -3.065 H 1 FUZI_1    0.000
84 H_28934 -7.203 2.184 -5.651 H 1 FUZI_1    0.000
85 H_28933 -8.059 1.114 -3.657 H 1 FUZI_1    0.000
86 H_28932 -6.726 1.040 -1.653 H 1 FUZI_1    0.000
87 H_28930 -3.037 3.752 -4.486 H 1 FUZI_1    0.000
88 H_28935 -5.017 3.196 -5.641 H 1 FUZI_1    0.000
89 H_28927 -4.745 1.558 -0.526 H 1 FUZI_1    0.000
90 H_28931 -1.727 3.710 -2.484 H 1 FUZI_1    0.000
91 H.a21 -1.998 3.621 0.101 H 1 FUZI_1    0.000
92 H.a22 -2.990 2.341 0.727 H 1 FUZI_1    0.000
93 H.b21 1.250 5.065 1.418 H 1 FUZI_1    0.000
94 H.b22 1.157 5.234 3.161 H 1 FUZI_1    0.000
95 H_28916 1.958 -4.205 3.930 H 1 FUZI_1    0.000
96 H_289171 3.935 -3.299 2.654 H 1 FUZI_1    0.000
97 H_289172 2.857 -2.952 1.285 H 1 FUZI_1    0.000
98 H_289173 3.115 -4.617 1.813 H 1 FUZI_1    0.000
99 H.d21 1.432 -1.367 2.952 H 1 FUZI_1    0.000
100 H.d22 0.782 -2.068 4.407 H 1 FUZI_1    0.000
101 H_289091 -1.159 2.017 2.043 H 1 FUZI_1    0.000
102 H_289092 -0.316 0.547 1.618 H 1 FUZI_1    0.000
103 H_289121 0.205 4.001 -0.080 H 1 FUZI_1    0.000
104 H_289122 1.741 3.255 -0.550 H 1 FUZI_1    0.000
105 H.c 0.940 0.681 3.833 H 1 FUZI_1    0.000
106 H_289181 0.573 -4.862 1.979 H 1 FUZI_1    0.000
107 H_289182 0.302 -3.158 1.577 H 1 FUZI_1    0.000
108 H_289183 -0.345 -3.830 3.083 H 1 FUZI_1    0.000
109 H_289011 3.625 1.685 4.822 H 1 FUZI_1    0.000
110 H_289012 2.444 0.701 5.702 H 1 FUZI_1    0.000
111 H_289041 4.434 0.448 2.284 H 1 FUZI_1    0.000
112 H_289042 3.419 -0.969 2.015 H 1 FUZI_1    0.000
113 H.e 3.892 -0.980 7.277 H 1 FUZI_1    0.000
114 H_288921 5.000 -3.774 6.777 H 1 FUZI_1    0.000
115 H_288922 4.457 -3.071 8.322 H 1 FUZI_1    0.000
116 H_288941 7.152 -0.535 6.548 H 1 FUZI_1    0.000
117 H_288942 7.160 -2.030 5.564 H 1 FUZI_1    0.000
118 H_288931 6.390 -1.655 8.450 H 1 FUZI_1    0.000
119 H_288932 7.113 -3.086 7.680 H 1 FUZI_1    0.000
@<TRIPOS>BOND
1 1 29 1 
2 2 4 1 
3 2 118 1 
4 2 119 1 
5 3 2 1 
6 3 116 1 
7 3 117 1 
8 4 114 1 
9 4 115 1 
10 5 3 1 
11 7 5 1 
12 7 4 1 
13 7 113 1 
14 9 16 1 
15 9 111 1 
16 9 112 1 
17 10 11 1 
18 10 13 1 
19 10 109 1 
20 10 110 1 
21 11 22 1 
22 11 9 1 
23 12 26 1 
24 12 106 1 
25 12 107 1 
26 12 108 1 
27 13 105 1 
28 16 13 1 
29 17 45 1 
30 17 1 1 
31 17 103 1 
32 17 104 1 
33 18 1 1 
34 18 101 1 
35 18 102 1 
36 19 32 2 
37 21 23 1 
38 21 7 1 
39 21 6 2 
40 22 5 1 
41 22 8 2 
42 23 11 1 
43 23 24 1 
44 24 99 1 
45 24 100 1 
46 25 26 1 
47 25 96 1 
48 25 97 1 
49 25 98 1 
50 26 24 1 
51 26 95 1 
52 27 1 1 
53 27 16 1 
54 27 14 2 
55 28 13 1 
56 28 15 2 
57 29 28 1 
58 29 30 1 
59 30 93 1 
60 30 94 1 
61 31 32 1 
62 32 30 1 
63 33 40 2 
64 34 37 1 
65 34 91 1 
66 34 92 1 
67 35 39 2 
68 35 37 1 
69 35 90 1 
70 36 37 2 
71 36 89 1 
72 38 43 2 
73 38 33 1 
74 38 88 1 
75 39 33 1 
76 39 87 1 
77 40 36 1 
78 41 40 1 
79 41 86 1 
80 42 41 2 
81 42 85 1 
82 43 42 1 
83 43 84 1 
84 44 18 1 
85 44 34 1 
86 44 48 1 
87 45 44 1 
88 45 49 1 
89 46 49 2 
90 48 20 2 
91 49 47 1 
92 50 48 1 
93 50 47 1 
94 50 51 1 
95 51 82 1 
96 51 83 1 
97 52 66 1 
98 52 47 1 
99 52 80 1 
100 52 81 1 
101 53 47 1 
102 53 78 1 
103 53 79 1 
104 54 53 1 
105 54 76 1 
106 54 77 1 
107 55 54 1 
108 56 62 1 
109 57 56 2 
110 57 75 1 
111 58 60 2 
112 58 59 1 
113 58 74 1 
114 59 73 1 
115 60 51 1 
116 60 57 1 
117 61 65 2 
118 61 56 1 
119 61 72 1 
120 62 59 2 
121 63 62 1 
122 63 71 1 
123 64 63 2 
124 65 64 1 
125 66 55 1 
126 66 67 1 
127 66 68 1 
128 69 65 1 
129 70 64 1 
@<TRIPOS>SUBSTRUCTURE
1 CKW::FUZI_1 1 RESIDUE 1 CKW::A CKW::FUZI 1
