@<TRIPOS>MOLECULE
COMMON-LISP:NIL
119 129 1 0 0
POLYMER
CHARGES


@<TRIPOS>ATOM
1 C.b -1.67135 -0.0200173 0.213086 C.3 1 FUZI_1    0.000
2 C_28893 0.248 3.345 8.905 C.3 1 FUZI_1    0.000
3 C_28894 -0.957 2.583 8.331 C.3 1 FUZI_1    0.000
4 C_28892 1.436 2.815 8.094 C.3 1 FUZI_1    0.000
5 N -0.577 2.150 6.981 N.am 1 FUZI_1    0.000
6 O 2.759 1.328 6.018 O.2 1 FUZI_1    0.000
7 C.e 0.816 2.519 6.718 C.3 1 FUZI_1    0.000
8 O -2.506 1.184 6.398 O.2 1 FUZI_1    0.000
9 C_28904 -1.494 -0.081 4.072 C.3 1 FUZI_1    0.000
10 C_28901 -0.763 2.162 3.817 C.3 1 FUZI_1    0.000
11 C.d -0.657 0.993 4.834 C.3 1 FUZI_1    0.000
12 C_28918 2.992 0.308 2.940 C.3 1 FUZI_1    0.000
13 C.c -0.730 1.481 2.444 C.3 1 FUZI_1    0.000
14 O -2.165 -1.734 1.878 O.2 1 FUZI_1    0.000
15 O -1.474 3.451 1.329 O.2 1 FUZI_1    0.000
16 N -1.333 0.175 2.637 N.am 1 FUZI_1    0.000
17 C_28912 -0.309 -0.410 -0.392 C.3 1 FUZI_1    0.000
18 C_28909 -2.678 -0.737 -0.748 C.3 1 FUZI_1    0.000
19 O -1.421 4.260 -1.837 O.co2 1 FUZI_1    0.000
20 O -3.741 -0.696 -3.415 O.2 1 FUZI_1    0.000
21 C_28900 1.557 1.472 5.901 C.2 1 FUZI_1    0.000
22 C_28897 -1.349 1.444 6.126 C.2 1 FUZI_1    0.000
23 N.d 0.799 0.674 5.091 N.am 1 FUZI_1    0.000
24 C.d2 1.344 -0.650 4.666 C.3 1 FUZI_1    0.000
25 C_28917 2.491 -2.171 3.006 C.3 1 FUZI_1    0.000
26 C_28916 1.913 -0.759 3.226 C.3 1 FUZI_1    0.000
27 C_28908 -1.748 -0.619 1.630 C.2 1 FUZI_1    0.000
28 C_28905 -1.353 2.240 1.294 C.2 1 FUZI_1    0.000
29 N.b -1.766 1.490 0.229 N.am 1 FUZI_1    0.000
30 C.b2 -2.147 2.171 -1.039 C.3 1 FUZI_1    0.000
31 OH 0.051 2.727 -1.689 O.co2 1 FUZI_1    0.000
32 C_28922 -1.092 3.121 -1.574 C.2 1 FUZI_1    0.000
33 C_28929 0.537 -4.763 0.642 C.2 1 FUZI_1    0.000
34 C.a2 -1.860 -2.733 -2.170 C.3 1 FUZI_1    0.000
35 C_28931 0.310 -3.641 -1.369 C.2 1 FUZI_1    0.000
36 C_28927 -1.538 -3.985 -0.044 C.2 1 FUZI_1    0.000
37 C_28926 -1.000 -3.473 -1.155 C.2 1 FUZI_1    0.000
38 C_28935 1.293 -5.393 1.547 C.2 1 FUZI_1    0.000
39 C_28930 1.074 -4.275 -0.479 C.2 1 FUZI_1    0.000
40 C_28928 -0.783 -4.619 0.860 C.2 1 FUZI_1    0.000
41 C_28932 -1.325 -5.107 1.981 C.2 1 FUZI_1    0.000
42 C_28933 -0.563 -5.731 2.880 C.2 1 FUZI_1    0.000
43 C_28934 0.745 -5.874 2.663 C.2 1 FUZI_1    0.000
44 C.a -1.882 -1.175 -2.020 C.3 1 FUZI_1    0.000
45 N -0.534 -0.642 -1.822 N.am 1 FUZI_1    0.000
46 O 1.489 -0.063 -2.505 O.2 1 FUZI_1    0.000
47 C_28938 -0.218 -0.121 -4.229 C.3 1 FUZI_1    0.000
48 C_28936 -2.530 -0.654 -3.294 C.2 1 FUZI_1    0.000
49 C_28939 0.325 -0.276 -2.795 C.2 1 FUZI_1    0.000
50 N.z -1.729 -0.170 -4.291 N.am 1 FUZI_1    0.000
51 C.z2 -2.368 0.273 -5.568 C.3 1 FUZI_1    0.000
52 C_28975 0.391 -1.307 -5.045 C.3 1 FUZI_1    0.000
53 C_28944 0.344 1.245 -4.776 C.3 1 FUZI_1    0.000
54 C_28945 0.866 1.151 -6.229 C.3 1 FUZI_1    0.000
55 NH 1.979 0.168 -6.331 N.2 1 FUZI_1    0.000
56 C_28979 -2.373 -1.318 -8.930 C.2 1 FUZI_1    0.000
57 C_28980 -2.249 -0.430 -7.938 C.2 1 FUZI_1    0.000
58 C_28976 -2.948 -2.006 -6.415 C.2 1 FUZI_1    0.000
59 C_28977 -3.076 -2.901 -7.394 C.2 1 FUZI_1    0.000
60 C_28943 -2.529 -0.761 -6.673 C.2 1 FUZI_1    0.000
61 C_28984 -2.086 -0.979 -10.192 C.2 1 FUZI_1    0.000
62 C_28978 -2.790 -2.567 -8.655 C.2 1 FUZI_1    0.000
63 C_28981 -2.914 -3.457 -9.646 C.2 1 FUZI_1    0.000
64 C_28982 -2.626 -3.111 -10.901 C.2 1 FUZI_1    0.000
65 C_28983 -2.212 -1.873 -11.173 C.2 1 FUZI_1    0.000
66 C_28974 1.851 -1.057 -5.490 C.3 1 FUZI_1    0.000
67 H_289741 2.503 -0.960 -4.620 H 1 FUZI_1    0.000
68 H_289742 2.193 -1.915 -6.075 H 1 FUZI_1    0.000
69 H_28983 -1.978 -1.592 -12.197 H 1 FUZI_1    0.000
70 H_28982 -2.728 -3.838 -11.702 H 1 FUZI_1    0.000
71 H_28981 -3.250 -4.471 -9.438 H 1 FUZI_1    0.000
72 H_28984 -1.748 0.027 -10.429 H 1 FUZI_1    0.000
73 H_28977 -3.416 -3.906 -7.154 H 1 FUZI_1    0.000
74 H_28976 -3.185 -2.309 -5.400 H 1 FUZI_1    0.000
75 H_28980 -1.913 0.581 -8.163 H 1 FUZI_1    0.000
76 H_289451 0.068 0.853 -6.911 H 1 FUZI_1    0.000
77 H_289452 1.236 2.131 -6.541 H 1 FUZI_1    0.000
78 H_289441 1.183 1.609 -4.181 H 1 FUZI_1    0.000
79 H_289442 -0.406 2.034 -4.691 H 1 FUZI_1    0.000
80 H_289751 -0.184 -1.494 -5.950 H 1 FUZI_1    0.000
81 H_289752 0.343 -2.230 -4.463 H 1 FUZI_1    0.000
82 H.z21 -1.844 1.136 -5.972 H 1 FUZI_1    0.000
83 H.z22 -3.365 0.658 -5.339 H 1 FUZI_1    0.000
84 H_28934 1.365 -6.384 3.397 H 1 FUZI_1    0.000
85 H_28933 -1.008 -6.124 3.791 H 1 FUZI_1    0.000
86 H_28932 -2.390 -4.996 2.173 H 1 FUZI_1    0.000
87 H_28930 2.138 -4.386 -0.675 H 1 FUZI_1    0.000
88 H_28935 2.362 -5.516 1.383 H 1 FUZI_1    0.000
89 H_28927 -2.606 -3.871 0.133 H 1 FUZI_1    0.000
90 H_28931 0.769 -3.246 -2.272 H 1 FUZI_1    0.000
91 H.a21 -1.496 -2.987 -3.169 H 1 FUZI_1    0.000
92 H.a22 -2.884 -3.114 -2.134 H 1 FUZI_1    0.000
93 H.b21 -3.059 2.748 -0.863 H 1 FUZI_1    0.000
94 H.b22 -2.336 1.477 -1.852 H 1 FUZI_1    0.000
95 H_28916 1.112 -0.640 2.503 H 1 FUZI_1    0.000
96 H_289171 3.327 -2.362 3.683 H 1 FUZI_1    0.000
97 H_289172 2.846 -2.286 1.978 H 1 FUZI_1    0.000
98 H_289173 1.724 -2.928 3.184 H 1 FUZI_1    0.000
99 H.d21 0.605 -1.434 4.824 H 1 FUZI_1    0.000
100 H.d22 2.158 -0.911 5.348 H 1 FUZI_1    0.000
101 H_289091 -3.520 -0.082 -0.979 H 1 FUZI_1    0.000
102 H_289092 -3.142 -1.612 -0.294 H 1 FUZI_1    0.000
103 H_289121 0.428 0.383 -0.233 H 1 FUZI_1    0.000
104 H_289122 0.067 -1.329 0.063 H 1 FUZI_1    0.000
105 H.c 0.312 1.331 2.157 H 1 FUZI_1    0.000
106 H_289181 3.374 0.200 1.922 H 1 FUZI_1    0.000
107 H_289182 3.831 0.208 3.633 H 1 FUZI_1    0.000
108 H_289183 2.582 1.315 3.037 H 1 FUZI_1    0.000
109 H_289011 0.038 2.897 3.920 H 1 FUZI_1    0.000
110 H_289012 -1.720 2.678 3.941 H 1 FUZI_1    0.000
111 H_289041 -1.243 -1.109 4.329 H 1 FUZI_1    0.000
112 H_289042 -2.558 0.052 4.279 H 1 FUZI_1    0.000
113 H.e 0.806 3.437 6.123 H 1 FUZI_1    0.000
114 H_288921 2.254 3.537 8.034 H 1 FUZI_1    0.000
115 H_288922 1.805 1.892 8.551 H 1 FUZI_1    0.000
116 H_288941 -1.163 1.698 8.939 H 1 FUZI_1    0.000
117 H_288942 -1.843 3.224 8.296 H 1 FUZI_1    0.000
118 H_288931 0.370 3.179 9.977 H 1 FUZI_1    0.000
119 H_288932 0.126 4.416 8.722 H 1 FUZI_1    0.000
@<TRIPOS>BOND
1 1 29 1 
2 2 4 1 
3 2 118 1 
4 2 119 1 
5 3 2 1 
6 3 116 1 
7 3 117 1 
8 4 114 1 
9 4 115 1 
10 5 3 1 
11 7 5 1 
12 7 4 1 
13 7 113 1 
14 9 16 1 
15 9 111 1 
16 9 112 1 
17 10 11 1 
18 10 13 1 
19 10 109 1 
20 10 110 1 
21 11 22 1 
22 11 9 1 
23 12 26 1 
24 12 106 1 
25 12 107 1 
26 12 108 1 
27 13 105 1 
28 16 13 1 
29 17 45 1 
30 17 1 1 
31 17 103 1 
32 17 104 1 
33 18 1 1 
34 18 101 1 
35 18 102 1 
36 19 32 2 
37 21 23 1 
38 21 7 1 
39 21 6 2 
40 22 5 1 
41 22 8 2 
42 23 11 1 
43 23 24 1 
44 24 99 1 
45 24 100 1 
46 25 26 1 
47 25 96 1 
48 25 97 1 
49 25 98 1 
50 26 24 1 
51 26 95 1 
52 27 1 1 
53 27 16 1 
54 27 14 2 
55 28 13 1 
56 28 15 2 
57 29 28 1 
58 29 30 1 
59 30 93 1 
60 30 94 1 
61 31 32 1 
62 32 30 1 
63 33 40 2 
64 34 37 1 
65 34 91 1 
66 34 92 1 
67 35 39 2 
68 35 37 1 
69 35 90 1 
70 36 37 2 
71 36 89 1 
72 38 43 2 
73 38 33 1 
74 38 88 1 
75 39 33 1 
76 39 87 1 
77 40 36 1 
78 41 40 1 
79 41 86 1 
80 42 41 2 
81 42 85 1 
82 43 42 1 
83 43 84 1 
84 44 18 1 
85 44 34 1 
86 44 48 1 
87 45 44 1 
88 45 49 1 
89 46 49 2 
90 48 20 2 
91 49 47 1 
92 50 48 1 
93 50 47 1 
94 50 51 1 
95 51 82 1 
96 51 83 1 
97 52 66 1 
98 52 47 1 
99 52 80 1 
100 52 81 1 
101 53 47 1 
102 53 78 1 
103 53 79 1 
104 54 53 1 
105 54 76 1 
106 54 77 1 
107 55 54 1 
108 56 62 1 
109 57 56 2 
110 57 75 1 
111 58 60 2 
112 58 59 1 
113 58 74 1 
114 59 73 1 
115 60 51 1 
116 60 57 1 
117 61 65 2 
118 61 56 1 
119 61 72 1 
120 62 59 2 
121 63 62 1 
122 63 71 1 
123 64 63 2 
124 65 64 1 
125 66 55 1 
126 66 67 1 
127 66 68 1 
128 69 65 1 
129 70 64 1 
@<TRIPOS>SUBSTRUCTURE
1 CKW::FUZI_1 1 RESIDUE 1 CKW::A CKW::FUZI 1
