@<TRIPOS>MOLECULE
COMMON-LISP:NIL
119 129 1 0 0
POLYMER
CHARGES


@<TRIPOS>ATOM
1 C.b 0.822948 0.25785 1.46776 C.3 1 FUZI_1    0.000
2 C_28893 8.078 -2.215 -0.740 C.3 1 FUZI_1    0.000
3 C_28894 6.863 -1.312 -1.036 C.3 1 FUZI_1    0.000
4 C_28892 8.460 -1.884 0.711 C.3 1 FUZI_1    0.000
5 N 6.752 -0.363 0.083 N.am 1 FUZI_1    0.000
6 O 9.008 0.134 2.886 O.2 1 FUZI_1    0.000
7 C.e 7.998 -0.429 0.832 C.3 1 FUZI_1    0.000
8 O 4.608 0.146 -0.186 O.2 1 FUZI_1    0.000
9 C_28904 4.382 1.505 2.253 C.3 1 FUZI_1    0.000
10 C_28901 4.829 -0.831 2.692 C.3 1 FUZI_1    0.000
11 C.d 5.486 0.426 2.059 C.3 1 FUZI_1    0.000
12 C_28918 5.214 1.279 5.690 C.3 1 FUZI_1    0.000
13 C.c 3.310 -0.548 2.755 C.3 1 FUZI_1    0.000
14 O 1.815 2.462 1.528 O.2 1 FUZI_1    0.000
15 O 2.745 -2.774 2.137 O.2 1 FUZI_1    0.000
16 N 3.104 0.792 2.231 N.am 1 FUZI_1    0.000
17 C_28912 -0.316 0.533 2.471 C.3 1 FUZI_1    0.000
18 C_28909 0.182 0.599 0.085 C.3 1 FUZI_1    0.000
19 O 0.100 -4.305 2.112 O.co2 1 FUZI_1    0.000
20 O -1.901 0.179 -1.836 O.2 1 FUZI_1    0.000
21 C_28900 7.978 0.126 2.239 C.2 1 FUZI_1    0.000
22 C_28897 5.572 0.090 0.558 C.2 1 FUZI_1    0.000
23 N.d 6.825 0.689 2.699 N.am 1 FUZI_1    0.000
24 C.d2 6.917 1.719 3.781 C.3 1 FUZI_1    0.000
25 C_28917 7.397 -0.042 5.631 C.3 1 FUZI_1    0.000
26 C_28916 6.698 1.286 5.262 C.3 1 FUZI_1    0.000
27 C_28908 1.940 1.272 1.751 C.2 1 FUZI_1    0.000
28 C_28905 2.421 -1.601 2.125 C.2 1 FUZI_1    0.000
29 N.b 1.253 -1.185 1.559 N.am 1 FUZI_1    0.000
30 C.b2 0.260 -2.193 1.090 C.3 1 FUZI_1    0.000
31 OH -0.968 -2.707 3.031 O.co2 1 FUZI_1    0.000
32 C_28922 -0.233 -3.139 2.167 C.2 1 FUZI_1    0.000
33 C_28929 -1.490 4.248 -3.516 C.2 1 FUZI_1    0.000
34 C.a2 -1.564 2.471 0.306 C.3 1 FUZI_1    0.000
35 C_28931 -0.408 3.651 -1.558 C.2 1 FUZI_1    0.000
36 C_28927 -2.639 3.154 -1.825 C.2 1 FUZI_1    0.000
37 C_28926 -1.530 3.103 -1.079 C.2 1 FUZI_1    0.000
38 C_28935 -1.479 4.808 -4.730 C.2 1 FUZI_1    0.000
39 C_28930 -0.385 4.214 -2.766 C.2 1 FUZI_1    0.000
40 C_28928 -2.629 3.714 -3.039 C.2 1 FUZI_1    0.000
41 C_28932 -3.739 3.748 -3.785 C.2 1 FUZI_1    0.000
42 C_28933 -3.719 4.308 -4.995 C.2 1 FUZI_1    0.000
43 C_28934 -2.590 4.838 -5.467 C.2 1 FUZI_1    0.000
44 C.a -1.320 0.926 0.343 C.3 1 FUZI_1    0.000
45 N -1.564 0.469 1.710 N.am 1 FUZI_1    0.000
46 O -2.876 -0.061 3.408 O.2 1 FUZI_1    0.000
47 C_28938 -3.868 -0.323 1.206 C.3 1 FUZI_1    0.000
48 C_28936 -2.217 0.209 -0.659 C.2 1 FUZI_1    0.000
49 C_28939 -2.744 0.038 2.201 C.2 1 FUZI_1    0.000
50 N.z -3.338 -0.434 -0.209 N.am 1 FUZI_1    0.000
51 C.z2 -4.114 -1.262 -1.172 C.3 1 FUZI_1    0.000
52 C_28975 -4.890 0.856 1.309 C.3 1 FUZI_1    0.000
53 C_28944 -4.528 -1.652 1.751 C.3 1 FUZI_1    0.000
54 C_28945 -6.029 -1.869 1.434 C.3 1 FUZI_1    0.000
55 NH -6.806 -0.641 1.713 N.2 1 FUZI_1    0.000
56 C_28979 -4.382 -4.969 -1.410 C.2 1 FUZI_1    0.000
57 C_28980 -4.688 -3.669 -1.355 C.2 1 FUZI_1    0.000
58 C_28976 -2.457 -3.131 -1.223 C.2 1 FUZI_1    0.000
59 C_28977 -2.137 -4.424 -1.276 C.2 1 FUZI_1    0.000
60 C_28943 -3.735 -2.736 -1.250 C.2 1 FUZI_1    0.000
61 C_28984 -5.342 -5.895 -1.506 C.2 1 FUZI_1    0.000
62 C_28978 -3.093 -5.351 -1.367 C.2 1 FUZI_1    0.000
63 C_28981 -2.784 -6.652 -1.421 C.2 1 FUZI_1    0.000
64 C_28982 -3.749 -7.568 -1.515 C.2 1 FUZI_1    0.000
65 C_28983 -5.026 -7.190 -1.558 C.2 1 FUZI_1    0.000
66 C_28974 -6.335 0.504 0.903 C.3 1 FUZI_1    0.000
67 H_289741 -6.982 1.362 1.099 H 1 FUZI_1    0.000
68 H_289742 -6.398 0.268 -0.161 H 1 FUZI_1    0.000
69 H_28983 -5.812 -7.938 -1.635 H 1 FUZI_1    0.000
70 H_28982 -3.493 -8.623 -1.558 H 1 FUZI_1    0.000
71 H_28981 -1.745 -6.974 -1.388 H 1 FUZI_1    0.000
72 H_28984 -6.390 -5.602 -1.541 H 1 FUZI_1    0.000
73 H_28977 -1.088 -4.713 -1.247 H 1 FUZI_1    0.000
74 H_28976 -1.657 -2.403 -1.157 H 1 FUZI_1    0.000
75 H_28980 -5.732 -3.364 -1.395 H 1 FUZI_1    0.000
76 H_289451 -6.192 -2.172 0.402 H 1 FUZI_1    0.000
77 H_289452 -6.409 -2.673 2.070 H 1 FUZI_1    0.000
78 H_289441 -4.491 -1.677 2.840 H 1 FUZI_1    0.000
79 H_289442 -3.947 -2.520 1.433 H 1 FUZI_1    0.000
80 H_289751 -4.554 1.698 0.702 H 1 FUZI_1    0.000
81 H_289752 -4.932 1.219 2.339 H 1 FUZI_1    0.000
82 H.z21 -4.001 -0.843 -2.175 H 1 FUZI_1    0.000
83 H.z22 -5.174 -1.160 -0.966 H 1 FUZI_1    0.000
84 H_28934 -2.576 5.294 -6.454 H 1 FUZI_1    0.000
85 H_28933 -4.624 4.334 -5.597 H 1 FUZI_1    0.000
86 H_28932 -4.668 3.320 -3.413 H 1 FUZI_1    0.000
87 H_28930 0.543 4.648 -3.133 H 1 FUZI_1    0.000
88 H_28935 -0.565 5.245 -5.128 H 1 FUZI_1    0.000
89 H_28927 -3.561 2.724 -1.439 H 1 FUZI_1    0.000
90 H_28931 0.501 3.643 -0.963 H 1 FUZI_1    0.000
91 H.a21 -0.832 2.970 0.947 H 1 FUZI_1    0.000
92 H.a22 -2.531 2.691 0.759 H 1 FUZI_1    0.000
93 H.b21 0.715 -2.794 0.298 H 1 FUZI_1    0.000
94 H.b22 -0.637 -1.727 0.689 H 1 FUZI_1    0.000
95 H_28916 7.170 2.061 5.871 H 1 FUZI_1    0.000
96 H_289171 7.240 -0.273 6.687 H 1 FUZI_1    0.000
97 H_289172 8.473 0.035 5.468 H 1 FUZI_1    0.000
98 H_289173 7.015 -0.877 5.042 H 1 FUZI_1    0.000
99 H.d21 6.290 2.580 3.552 H 1 FUZI_1    0.000
100 H.d22 7.930 2.127 3.740 H 1 FUZI_1    0.000
101 H_289091 0.296 -0.236 -0.608 H 1 FUZI_1    0.000
102 H_289092 0.687 1.426 -0.413 H 1 FUZI_1    0.000
103 H_289121 -0.307 -0.198 3.284 H 1 FUZI_1    0.000
104 H_289122 -0.232 1.536 2.899 H 1 FUZI_1    0.000
105 H.c 3.010 -0.521 3.806 H 1 FUZI_1    0.000
106 H_289181 4.643 0.510 5.176 H 1 FUZI_1    0.000
107 H_289182 4.753 2.248 5.486 H 1 FUZI_1    0.000
108 H_289183 5.132 1.094 6.763 H 1 FUZI_1    0.000
109 H_289011 5.199 -1.011 3.700 H 1 FUZI_1    0.000
110 H_289012 5.062 -1.730 2.116 H 1 FUZI_1    0.000
111 H_289041 4.429 1.997 3.222 H 1 FUZI_1    0.000
112 H_289042 4.429 2.260 1.463 H 1 FUZI_1    0.000
113 H.e 8.712 0.200 0.292 H 1 FUZI_1    0.000
114 H_288921 7.901 -2.517 1.405 H 1 FUZI_1    0.000
115 H_288922 9.531 -1.999 0.894 H 1 FUZI_1    0.000
116 H_288941 7.001 -0.770 -1.975 H 1 FUZI_1    0.000
117 H_288942 5.956 -1.922 -1.091 H 1 FUZI_1    0.000
118 H_288931 8.901 -1.954 -1.410 H 1 FUZI_1    0.000
119 H_288932 7.842 -3.274 -0.866 H 1 FUZI_1    0.000
@<TRIPOS>BOND
1 1 29 1 
2 2 4 1 
3 2 118 1 
4 2 119 1 
5 3 2 1 
6 3 116 1 
7 3 117 1 
8 4 114 1 
9 4 115 1 
10 5 3 1 
11 7 5 1 
12 7 4 1 
13 7 113 1 
14 9 16 1 
15 9 111 1 
16 9 112 1 
17 10 11 1 
18 10 13 1 
19 10 109 1 
20 10 110 1 
21 11 22 1 
22 11 9 1 
23 12 26 1 
24 12 106 1 
25 12 107 1 
26 12 108 1 
27 13 105 1 
28 16 13 1 
29 17 45 1 
30 17 1 1 
31 17 103 1 
32 17 104 1 
33 18 1 1 
34 18 101 1 
35 18 102 1 
36 19 32 2 
37 21 23 1 
38 21 7 1 
39 21 6 2 
40 22 5 1 
41 22 8 2 
42 23 11 1 
43 23 24 1 
44 24 99 1 
45 24 100 1 
46 25 26 1 
47 25 96 1 
48 25 97 1 
49 25 98 1 
50 26 24 1 
51 26 95 1 
52 27 1 1 
53 27 16 1 
54 27 14 2 
55 28 13 1 
56 28 15 2 
57 29 28 1 
58 29 30 1 
59 30 93 1 
60 30 94 1 
61 31 32 1 
62 32 30 1 
63 33 40 2 
64 34 37 1 
65 34 91 1 
66 34 92 1 
67 35 39 2 
68 35 37 1 
69 35 90 1 
70 36 37 2 
71 36 89 1 
72 38 43 2 
73 38 33 1 
74 38 88 1 
75 39 33 1 
76 39 87 1 
77 40 36 1 
78 41 40 1 
79 41 86 1 
80 42 41 2 
81 42 85 1 
82 43 42 1 
83 43 84 1 
84 44 18 1 
85 44 34 1 
86 44 48 1 
87 45 44 1 
88 45 49 1 
89 46 49 2 
90 48 20 2 
91 49 47 1 
92 50 48 1 
93 50 47 1 
94 50 51 1 
95 51 82 1 
96 51 83 1 
97 52 66 1 
98 52 47 1 
99 52 80 1 
100 52 81 1 
101 53 47 1 
102 53 78 1 
103 53 79 1 
104 54 53 1 
105 54 76 1 
106 54 77 1 
107 55 54 1 
108 56 62 1 
109 57 56 2 
110 57 75 1 
111 58 60 2 
112 58 59 1 
113 58 74 1 
114 59 73 1 
115 60 51 1 
116 60 57 1 
117 61 65 2 
118 61 56 1 
119 61 72 1 
120 62 59 2 
121 63 62 1 
122 63 71 1 
123 64 63 2 
124 65 64 1 
125 66 55 1 
126 66 67 1 
127 66 68 1 
128 69 65 1 
129 70 64 1 
@<TRIPOS>SUBSTRUCTURE
1 CKW::FUZI_1 1 RESIDUE 1 CKW::A CKW::FUZI 1
