@<TRIPOS>MOLECULE
COMMON-LISP:NIL
119 129 1 0 0
POLYMER
CHARGES


@<TRIPOS>ATOM
1 C.b -2.1697 0.226277 0.427573 C.3 1 FUZI_1    0.000
2 C_28893 -2.961 6.499 -6.478 C.3 1 FUZI_1    0.000
3 C_28894 -3.581 5.763 -5.278 C.3 1 FUZI_1    0.000
4 C_28892 -1.484 6.086 -6.439 C.3 1 FUZI_1    0.000
5 N -2.661 4.673 -4.922 N.am 1 FUZI_1    0.000
6 O 0.809 4.515 -5.729 O.2 1 FUZI_1    0.000
7 C.e -1.557 4.662 -5.867 C.3 1 FUZI_1    0.000
8 O -3.749 3.960 -3.119 O.2 1 FUZI_1    0.000
9 C_28904 -2.044 1.637 -3.150 C.3 1 FUZI_1    0.000
10 C_28901 -1.077 3.581 -1.999 C.3 1 FUZI_1    0.000
11 C.d -1.520 3.075 -3.408 C.3 1 FUZI_1    0.000
12 C_28918 0.394 0.151 -5.260 C.3 1 FUZI_1    0.000
13 C.c -1.078 2.355 -1.069 C.3 1 FUZI_1    0.000
14 O -3.027 -0.596 -1.703 O.2 1 FUZI_1    0.000
15 O -1.390 3.719 0.881 O.2 1 FUZI_1    0.000
16 N -1.893 1.332 -1.726 N.am 1 FUZI_1    0.000
17 C_28912 -0.727 -0.318 0.623 C.3 1 FUZI_1    0.000
18 C_28909 -3.001 -0.877 1.169 C.3 1 FUZI_1    0.000
19 O -5.610 1.390 0.957 O.co2 1 FUZI_1    0.000
20 O -3.690 -3.317 2.476 O.2 1 FUZI_1    0.000
21 C_28900 -0.261 4.106 -5.321 C.2 1 FUZI_1    0.000
22 C_28897 -2.741 3.924 -3.803 C.2 1 FUZI_1    0.000
23 N.d -0.360 3.131 -4.372 N.am 1 FUZI_1    0.000
24 C.d2 0.853 2.358 -3.962 C.3 1 FUZI_1    0.000
25 C_28917 1.992 1.837 -6.246 C.3 1 FUZI_1    0.000
26 C_28916 1.406 1.268 -4.936 C.3 1 FUZI_1    0.000
27 C_28908 -2.412 0.255 -1.089 C.2 1 FUZI_1    0.000
28 C_28905 -1.550 2.635 0.351 C.2 1 FUZI_1    0.000
29 N.b -2.252 1.634 0.951 N.am 1 FUZI_1    0.000
30 C.b2 -3.468 2.014 1.707 C.3 1 FUZI_1    0.000
31 OH -4.668 3.012 -0.056 O.co2 1 FUZI_1    0.000
32 C_28922 -4.681 2.157 0.808 C.2 1 FUZI_1    0.000
33 C_28929 0.441 2.279 4.365 C.2 1 FUZI_1    0.000
34 C.a2 -2.005 -1.076 3.569 C.3 1 FUZI_1    0.000
35 C_28931 -1.649 1.296 4.238 C.2 1 FUZI_1    0.000
36 C_28927 0.221 0.049 3.774 C.2 1 FUZI_1    0.000
37 C_28926 -1.113 0.133 3.852 C.2 1 FUZI_1    0.000
38 C_28935 1.219 3.341 4.602 C.2 1 FUZI_1    0.000
39 C_28930 -0.886 2.361 4.483 C.2 1 FUZI_1    0.000
40 C_28928 1.001 1.108 4.013 C.2 1 FUZI_1    0.000
41 C_28932 2.331 1.016 3.905 C.2 1 FUZI_1    0.000
42 C_28933 3.099 2.080 4.142 C.2 1 FUZI_1    0.000
43 C_28934 2.544 3.241 4.489 C.2 1 FUZI_1    0.000
44 C.a -2.038 -1.657 2.106 C.3 1 FUZI_1    0.000
45 N -0.765 -1.564 1.400 N.am 1 FUZI_1    0.000
46 O 1.235 -2.264 0.773 O.2 1 FUZI_1    0.000
47 C_28938 -0.121 -3.899 1.959 C.3 1 FUZI_1    0.000
48 C_28936 -2.517 -3.098 2.228 C.2 1 FUZI_1    0.000
49 C_28939 0.191 -2.520 1.341 C.2 1 FUZI_1    0.000
50 N.z -1.618 -4.113 2.049 N.am 1 FUZI_1    0.000
51 C.z2 -2.118 -5.520 2.026 C.3 1 FUZI_1    0.000
52 C_28975 0.485 -3.929 3.398 C.3 1 FUZI_1    0.000
53 C_28944 0.623 -5.014 1.130 C.3 1 FUZI_1    0.000
54 C_28945 2.169 -5.022 1.248 C.3 1 FUZI_1    0.000
55 NH 2.581 -5.023 2.673 N.2 1 FUZI_1    0.000
56 C_28979 -2.161 -6.570 5.597 C.2 1 FUZI_1    0.000
57 C_28980 -2.356 -5.874 4.472 C.2 1 FUZI_1    0.000
58 C_28976 -1.256 -7.493 3.260 C.2 1 FUZI_1    0.000
59 C_28977 -1.057 -8.197 4.374 C.2 1 FUZI_1    0.000
60 C_28943 -1.901 -6.323 3.296 C.2 1 FUZI_1    0.000
61 C_28984 -2.611 -6.112 6.770 C.2 1 FUZI_1    0.000
62 C_28978 -1.504 -7.744 5.548 C.2 1 FUZI_1    0.000
63 C_28981 -1.309 -8.440 6.673 C.2 1 FUZI_1    0.000
64 C_28982 -1.761 -7.976 7.838 C.2 1 FUZI_1    0.000
65 C_28983 -2.411 -6.813 7.887 C.2 1 FUZI_1    0.000
66 C_28974 2.027 -3.870 3.422 C.3 1 FUZI_1    0.000
67 H_289741 2.387 -2.935 2.986 H 1 FUZI_1    0.000
68 H_289742 2.374 -3.924 4.457 H 1 FUZI_1    0.000
69 H_28983 -2.779 -6.436 8.838 H 1 FUZI_1    0.000
70 H_28982 -1.599 -8.546 8.750 H 1 FUZI_1    0.000
71 H_28981 -0.780 -9.391 6.648 H 1 FUZI_1    0.000
72 H_28984 -3.143 -5.165 6.826 H 1 FUZI_1    0.000
73 H_28977 -0.526 -9.145 4.316 H 1 FUZI_1    0.000
74 H_28976 -0.884 -7.881 2.315 H 1 FUZI_1    0.000
75 H_28980 -2.886 -4.925 4.514 H 1 FUZI_1    0.000
76 H_289451 2.553 -5.930 0.777 H 1 FUZI_1    0.000
77 H_289452 2.622 -4.171 0.737 H 1 FUZI_1    0.000
78 H_289441 0.336 -4.949 0.077 H 1 FUZI_1    0.000
79 H_289442 0.334 -6.004 1.478 H 1 FUZI_1    0.000
80 H_289751 0.189 -4.844 3.910 H 1 FUZI_1    0.000
81 H_289752 0.097 -3.105 3.993 H 1 FUZI_1    0.000
82 H.z21 -1.706 -6.044 1.163 H 1 FUZI_1    0.000
83 H.z22 -3.193 -5.515 1.832 H 1 FUZI_1    0.000
84 H_28934 3.172 4.108 4.682 H 1 FUZI_1    0.000
85 H_28933 4.180 2.000 4.051 H 1 FUZI_1    0.000
86 H_28932 2.797 0.075 3.621 H 1 FUZI_1    0.000
87 H_28930 -1.357 3.295 4.783 H 1 FUZI_1    0.000
88 H_28935 0.779 4.294 4.889 H 1 FUZI_1    0.000
89 H_28927 0.686 -0.894 3.503 H 1 FUZI_1    0.000
90 H_28931 -2.724 1.387 4.361 H 1 FUZI_1    0.000
91 H.a21 -1.688 -1.865 4.251 H 1 FUZI_1    0.000
92 H.a22 -3.031 -0.855 3.874 H 1 FUZI_1    0.000
93 H.b21 -3.320 2.982 2.194 H 1 FUZI_1    0.000
94 H.b22 -3.702 1.297 2.490 H 1 FUZI_1    0.000
95 H_28916 2.239 0.792 -4.412 H 1 FUZI_1    0.000
96 H_289171 2.521 1.053 -6.794 H 1 FUZI_1    0.000
97 H_289172 2.707 2.635 -6.035 H 1 FUZI_1    0.000
98 H_289173 1.205 2.223 -6.897 H 1 FUZI_1    0.000
99 H.d21 0.655 1.844 -3.022 H 1 FUZI_1    0.000
100 H.d22 1.655 3.073 -3.758 H 1 FUZI_1    0.000
101 H_289091 -3.370 -1.597 0.436 H 1 FUZI_1    0.000
102 H_289092 -3.895 -0.539 1.684 H 1 FUZI_1    0.000
103 H_289121 -0.262 -0.522 -0.346 H 1 FUZI_1    0.000
104 H_289122 -0.104 0.409 1.149 H 1 FUZI_1    0.000
105 H.c -0.061 1.963 -0.983 H 1 FUZI_1    0.000
106 H_289181 0.104 -0.379 -4.350 H 1 FUZI_1    0.000
107 H_289182 0.839 -0.583 -5.936 H 1 FUZI_1    0.000
108 H_289183 -0.499 0.557 -5.741 H 1 FUZI_1    0.000
109 H_289011 -1.769 4.334 -1.614 H 1 FUZI_1    0.000
110 H_289012 -0.090 4.052 -2.015 H 1 FUZI_1    0.000
111 H_289041 -3.099 1.542 -3.423 H 1 FUZI_1    0.000
112 H_289042 -1.490 0.902 -3.722 H 1 FUZI_1    0.000
113 H.e -1.847 3.981 -6.673 H 1 FUZI_1    0.000
114 H_288921 -1.019 6.115 -7.427 H 1 FUZI_1    0.000
115 H_288922 -0.933 6.740 -5.759 H 1 FUZI_1    0.000
116 H_288941 -3.666 6.446 -4.427 H 1 FUZI_1    0.000
117 H_288942 -4.567 5.365 -5.532 H 1 FUZI_1    0.000
118 H_288931 -3.089 7.582 -6.411 H 1 FUZI_1    0.000
119 H_288932 -3.419 6.143 -7.404 H 1 FUZI_1    0.000
@<TRIPOS>BOND
1 1 29 1 
2 2 4 1 
3 2 118 1 
4 2 119 1 
5 3 2 1 
6 3 116 1 
7 3 117 1 
8 4 114 1 
9 4 115 1 
10 5 3 1 
11 7 5 1 
12 7 4 1 
13 7 113 1 
14 9 16 1 
15 9 111 1 
16 9 112 1 
17 10 11 1 
18 10 13 1 
19 10 109 1 
20 10 110 1 
21 11 22 1 
22 11 9 1 
23 12 26 1 
24 12 106 1 
25 12 107 1 
26 12 108 1 
27 13 105 1 
28 16 13 1 
29 17 45 1 
30 17 1 1 
31 17 103 1 
32 17 104 1 
33 18 1 1 
34 18 101 1 
35 18 102 1 
36 19 32 2 
37 21 23 1 
38 21 7 1 
39 21 6 2 
40 22 5 1 
41 22 8 2 
42 23 11 1 
43 23 24 1 
44 24 99 1 
45 24 100 1 
46 25 26 1 
47 25 96 1 
48 25 97 1 
49 25 98 1 
50 26 24 1 
51 26 95 1 
52 27 1 1 
53 27 16 1 
54 27 14 2 
55 28 13 1 
56 28 15 2 
57 29 28 1 
58 29 30 1 
59 30 93 1 
60 30 94 1 
61 31 32 1 
62 32 30 1 
63 33 40 2 
64 34 37 1 
65 34 91 1 
66 34 92 1 
67 35 39 2 
68 35 37 1 
69 35 90 1 
70 36 37 2 
71 36 89 1 
72 38 43 2 
73 38 33 1 
74 38 88 1 
75 39 33 1 
76 39 87 1 
77 40 36 1 
78 41 40 1 
79 41 86 1 
80 42 41 2 
81 42 85 1 
82 43 42 1 
83 43 84 1 
84 44 18 1 
85 44 34 1 
86 44 48 1 
87 45 44 1 
88 45 49 1 
89 46 49 2 
90 48 20 2 
91 49 47 1 
92 50 48 1 
93 50 47 1 
94 50 51 1 
95 51 82 1 
96 51 83 1 
97 52 66 1 
98 52 47 1 
99 52 80 1 
100 52 81 1 
101 53 47 1 
102 53 78 1 
103 53 79 1 
104 54 53 1 
105 54 76 1 
106 54 77 1 
107 55 54 1 
108 56 62 1 
109 57 56 2 
110 57 75 1 
111 58 60 2 
112 58 59 1 
113 58 74 1 
114 59 73 1 
115 60 51 1 
116 60 57 1 
117 61 65 2 
118 61 56 1 
119 61 72 1 
120 62 59 2 
121 63 62 1 
122 63 71 1 
123 64 63 2 
124 65 64 1 
125 66 55 1 
126 66 67 1 
127 66 68 1 
128 69 65 1 
129 70 64 1 
@<TRIPOS>SUBSTRUCTURE
1 CKW::FUZI_1 1 RESIDUE 1 CKW::A CKW::FUZI 1
