@<TRIPOS>MOLECULE
COMMON-LISP:NIL
119 129 1 0 0
POLYMER
CHARGES


@<TRIPOS>ATOM
1 C.b -0.698215 -2.54771 -1.7894 C.3 1 FUZI_1    0.000
2 C_28893 6.340 -1.254 4.019 C.3 1 FUZI_1    0.000
3 C_28894 5.546 -0.950 2.736 C.3 1 FUZI_1    0.000
4 C_28892 5.695 -2.538 4.556 C.3 1 FUZI_1    0.000
5 N 4.287 -1.703 2.825 N.am 1 FUZI_1    0.000
6 O 3.600 -4.487 4.993 O.2 1 FUZI_1    0.000
7 C.e 4.235 -2.379 4.112 C.3 1 FUZI_1    0.000
8 O 3.479 -1.138 0.838 O.2 1 FUZI_1    0.000
9 C_28904 0.966 -2.305 1.678 C.3 1 FUZI_1    0.000
10 C_28901 2.531 -3.897 0.713 C.3 1 FUZI_1    0.000
11 C.d 2.342 -2.966 1.947 C.3 1 FUZI_1    0.000
12 C_28918 -0.295 -3.454 4.782 C.3 1 FUZI_1    0.000
13 C.c 1.681 -3.264 -0.404 C.3 1 FUZI_1    0.000
14 O -1.310 -1.418 0.285 O.2 1 FUZI_1    0.000
15 O 1.704 -5.270 -1.698 O.2 1 FUZI_1    0.000
16 N 0.638 -2.492 0.262 N.am 1 FUZI_1    0.000
17 C_28912 -2.188 -2.389 -2.190 C.3 1 FUZI_1    0.000
18 C_28909 -0.074 -1.487 -2.720 C.3 1 FUZI_1    0.000
19 O -1.455 -4.176 -5.107 O.co2 1 FUZI_1    0.000
20 O 0.393 1.286 -2.109 O.2 1 FUZI_1    0.000
21 C_28900 3.396 -3.635 4.149 C.2 1 FUZI_1    0.000
22 C_28897 3.400 -1.855 1.820 C.2 1 FUZI_1    0.000
23 N.d 2.393 -3.744 3.233 N.am 1 FUZI_1    0.000
24 C.d2 1.378 -4.828 3.369 C.3 1 FUZI_1    0.000
25 C_28917 -0.457 -5.974 4.683 C.3 1 FUZI_1    0.000
26 C_28916 0.506 -4.768 4.655 C.3 1 FUZI_1    0.000
27 C_28908 -0.499 -2.082 -0.336 C.2 1 FUZI_1    0.000
28 C_28905 1.124 -4.234 -1.432 C.2 1 FUZI_1    0.000
29 N.b -0.058 -3.888 -2.021 N.am 1 FUZI_1    0.000
30 C.b2 -0.737 -4.818 -2.958 C.3 1 FUZI_1    0.000
31 OH 0.636 -4.493 -4.838 O.co2 1 FUZI_1    0.000
32 C_28922 -0.503 -4.478 -4.416 C.2 1 FUZI_1    0.000
33 C_28929 1.937 2.015 -6.150 C.2 1 FUZI_1    0.000
34 C.a2 -1.318 -0.002 -4.390 C.3 1 FUZI_1    0.000
35 C_28931 0.851 0.042 -5.614 C.2 1 FUZI_1    0.000
36 C_28927 -0.084 2.058 -5.016 C.2 1 FUZI_1    0.000
37 C_28926 -0.137 0.721 -5.020 C.2 1 FUZI_1    0.000
38 C_28935 2.966 2.667 -6.702 C.2 1 FUZI_1    0.000
39 C_28930 1.880 0.681 -6.170 C.2 1 FUZI_1    0.000
40 C_28928 0.943 2.711 -5.568 C.2 1 FUZI_1    0.000
41 C_28932 0.995 4.047 -5.548 C.2 1 FUZI_1    0.000
42 C_28933 2.025 4.689 -6.100 C.2 1 FUZI_1    0.000
43 C_28934 3.010 4.000 -6.677 C.2 1 FUZI_1    0.000
44 C.a -1.137 -0.359 -2.880 C.3 1 FUZI_1    0.000
45 N -2.384 -0.948 -2.390 N.am 1 FUZI_1    0.000
46 O -4.504 -0.820 -1.793 O.2 1 FUZI_1    0.000
47 C_28938 -3.180 1.182 -1.380 C.3 1 FUZI_1    0.000
48 C_28936 -0.752 0.873 -2.068 C.2 1 FUZI_1    0.000
49 C_28939 -3.425 -0.262 -1.876 C.2 1 FUZI_1    0.000
50 N.z -1.697 1.481 -1.288 N.am 1 FUZI_1    0.000
51 C.z2 -1.263 2.628 -0.446 C.3 1 FUZI_1    0.000
52 C_28975 -3.965 1.310 -0.009 C.3 1 FUZI_1    0.000
53 C_28944 -3.837 2.113 -2.447 C.3 1 FUZI_1    0.000
54 C_28945 -4.203 3.511 -1.916 C.3 1 FUZI_1    0.000
55 NH -5.171 3.361 -0.808 N.2 1 FUZI_1    0.000
56 C_28979 0.469 1.327 2.594 C.2 1 FUZI_1    0.000
57 C_28980 -0.473 1.600 1.685 C.2 1 FUZI_1    0.000
58 C_28976 1.057 2.766 0.426 C.2 1 FUZI_1    0.000
59 C_28977 2.008 2.496 1.320 C.2 1 FUZI_1    0.000
60 C_28943 -0.191 2.317 0.592 C.2 1 FUZI_1    0.000
61 C_28984 0.179 0.610 3.687 C.2 1 FUZI_1    0.000
62 C_28978 1.723 1.776 2.408 C.2 1 FUZI_1    0.000
63 C_28981 2.667 1.502 3.315 C.2 1 FUZI_1    0.000
64 C_28982 2.369 0.788 4.400 C.2 1 FUZI_1    0.000
65 C_28983 1.128 0.341 4.585 C.2 1 FUZI_1    0.000
66 C_28974 -4.566 2.694 0.367 C.3 1 FUZI_1    0.000
67 H_289741 -5.351 2.536 1.111 H 1 FUZI_1    0.000
68 H_289742 -3.834 3.359 0.826 H 1 FUZI_1    0.000
69 H_28983 0.887 -0.241 5.471 H 1 FUZI_1    0.000
70 H_28982 3.141 0.571 5.135 H 1 FUZI_1    0.000
71 H_28981 3.685 1.861 3.177 H 1 FUZI_1    0.000
72 H_28984 -0.830 0.238 3.851 H 1 FUZI_1    0.000
73 H_28977 3.016 2.870 1.155 H 1 FUZI_1    0.000
74 H_28976 1.312 3.356 -0.452 H 1 FUZI_1    0.000
75 H_28980 -1.483 1.234 1.840 H 1 FUZI_1    0.000
76 H_289451 -3.313 4.044 -1.571 H 1 FUZI_1    0.000
77 H_289452 -4.668 4.093 -2.715 H 1 FUZI_1    0.000
78 H_289441 -4.755 1.656 -2.826 H 1 FUZI_1    0.000
79 H_289442 -3.172 2.231 -3.304 H 1 FUZI_1    0.000
80 H_289751 -3.353 0.936 0.810 H 1 FUZI_1    0.000
81 H_289752 -4.840 0.660 -0.013 H 1 FUZI_1    0.000
82 H.z21 -2.093 3.084 0.067 H 1 FUZI_1    0.000
83 H.z22 -0.884 3.396 -1.127 H 1 FUZI_1    0.000
84 H_28934 3.849 4.524 -7.127 H 1 FUZI_1    0.000
85 H_28933 2.062 5.775 -6.081 H 1 FUZI_1    0.000
86 H_28932 0.199 4.623 -5.080 H 1 FUZI_1    0.000
87 H_28930 2.672 0.102 -6.642 H 1 FUZI_1    0.000
88 H_28935 3.776 2.117 -7.177 H 1 FUZI_1    0.000
89 H_28927 -0.889 2.621 -4.545 H 1 FUZI_1    0.000
90 H_28931 0.824 -1.044 -5.649 H 1 FUZI_1    0.000
91 H.a21 -2.210 0.615 -4.509 H 1 FUZI_1    0.000
92 H.a22 -1.528 -0.915 -4.954 H 1 FUZI_1    0.000
93 H.b21 -1.812 -4.847 -2.767 H 1 FUZI_1    0.000
94 H.b22 -0.367 -5.836 -2.812 H 1 FUZI_1    0.000
95 H_28916 1.152 -4.848 5.531 H 1 FUZI_1    0.000
96 H_289171 -1.140 -5.946 3.830 H 1 FUZI_1    0.000
97 H_289172 -1.050 -5.971 5.600 H 1 FUZI_1    0.000
98 H_289173 0.103 -6.911 4.645 H 1 FUZI_1    0.000
99 H.d21 1.911 -5.783 3.354 H 1 FUZI_1    0.000
100 H.d22 0.702 -4.826 2.511 H 1 FUZI_1    0.000
101 H_289091 0.128 -1.947 -3.687 H 1 FUZI_1    0.000
102 H_289092 0.886 -1.131 -2.341 H 1 FUZI_1    0.000
103 H_289121 -2.419 -2.871 -3.140 H 1 FUZI_1    0.000
104 H_289122 -2.847 -2.780 -1.410 H 1 FUZI_1    0.000
105 H.c 2.298 -2.556 -0.964 H 1 FUZI_1    0.000
106 H_289181 -1.036 -3.368 3.984 H 1 FUZI_1    0.000
107 H_289182 0.367 -2.588 4.742 H 1 FUZI_1    0.000
108 H_289183 -0.826 -3.425 5.736 H 1 FUZI_1    0.000
109 H_289011 2.166 -4.907 0.907 H 1 FUZI_1    0.000
110 H_289012 3.580 -3.985 0.418 H 1 FUZI_1    0.000
111 H_289041 0.172 -2.766 2.261 H 1 FUZI_1    0.000
112 H_289042 0.995 -1.240 1.910 H 1 FUZI_1    0.000
113 H.e 3.742 -1.690 4.803 H 1 FUZI_1    0.000
114 H_288921 6.144 -3.412 4.076 H 1 FUZI_1    0.000
115 H_288922 5.794 -2.629 5.640 H 1 FUZI_1    0.000
116 H_288941 5.347 0.121 2.645 H 1 FUZI_1    0.000
117 H_288942 6.104 -1.298 1.863 H 1 FUZI_1    0.000
118 H_288931 6.200 -0.443 4.737 H 1 FUZI_1    0.000
119 H_288932 7.408 -1.378 3.825 H 1 FUZI_1    0.000
@<TRIPOS>BOND
1 1 29 1 
2 2 4 1 
3 2 118 1 
4 2 119 1 
5 3 2 1 
6 3 116 1 
7 3 117 1 
8 4 114 1 
9 4 115 1 
10 5 3 1 
11 7 5 1 
12 7 4 1 
13 7 113 1 
14 9 16 1 
15 9 111 1 
16 9 112 1 
17 10 11 1 
18 10 13 1 
19 10 109 1 
20 10 110 1 
21 11 22 1 
22 11 9 1 
23 12 26 1 
24 12 106 1 
25 12 107 1 
26 12 108 1 
27 13 105 1 
28 16 13 1 
29 17 45 1 
30 17 1 1 
31 17 103 1 
32 17 104 1 
33 18 1 1 
34 18 101 1 
35 18 102 1 
36 19 32 2 
37 21 23 1 
38 21 7 1 
39 21 6 2 
40 22 5 1 
41 22 8 2 
42 23 11 1 
43 23 24 1 
44 24 99 1 
45 24 100 1 
46 25 26 1 
47 25 96 1 
48 25 97 1 
49 25 98 1 
50 26 24 1 
51 26 95 1 
52 27 1 1 
53 27 16 1 
54 27 14 2 
55 28 13 1 
56 28 15 2 
57 29 28 1 
58 29 30 1 
59 30 93 1 
60 30 94 1 
61 31 32 1 
62 32 30 1 
63 33 40 2 
64 34 37 1 
65 34 91 1 
66 34 92 1 
67 35 39 2 
68 35 37 1 
69 35 90 1 
70 36 37 2 
71 36 89 1 
72 38 43 2 
73 38 33 1 
74 38 88 1 
75 39 33 1 
76 39 87 1 
77 40 36 1 
78 41 40 1 
79 41 86 1 
80 42 41 2 
81 42 85 1 
82 43 42 1 
83 43 84 1 
84 44 18 1 
85 44 34 1 
86 44 48 1 
87 45 44 1 
88 45 49 1 
89 46 49 2 
90 48 20 2 
91 49 47 1 
92 50 48 1 
93 50 47 1 
94 50 51 1 
95 51 82 1 
96 51 83 1 
97 52 66 1 
98 52 47 1 
99 52 80 1 
100 52 81 1 
101 53 47 1 
102 53 78 1 
103 53 79 1 
104 54 53 1 
105 54 76 1 
106 54 77 1 
107 55 54 1 
108 56 62 1 
109 57 56 2 
110 57 75 1 
111 58 60 2 
112 58 59 1 
113 58 74 1 
114 59 73 1 
115 60 51 1 
116 60 57 1 
117 61 65 2 
118 61 56 1 
119 61 72 1 
120 62 59 2 
121 63 62 1 
122 63 71 1 
123 64 63 2 
124 65 64 1 
125 66 55 1 
126 66 67 1 
127 66 68 1 
128 69 65 1 
129 70 64 1 
@<TRIPOS>SUBSTRUCTURE
1 CKW::FUZI_1 1 RESIDUE 1 CKW::A CKW::FUZI 1
