@<TRIPOS>MOLECULE
COMMON-LISP:NIL
119 129 1 0 0
POLYMER
CHARGES


@<TRIPOS>ATOM
1 C.b 0.807525 -0.159701 1.94186 C.3 1 FUZI_1    0.000
2 C_28893 9.402 0.680 -0.858 C.3 1 FUZI_1    0.000
3 C_28894 7.908 0.814 -1.194 C.3 1 FUZI_1    0.000
4 C_28892 9.500 -0.677 -0.152 C.3 1 FUZI_1    0.000
5 N 7.188 -0.074 -0.273 N.am 1 FUZI_1    0.000
6 O 8.537 -3.077 1.119 O.2 1 FUZI_1    0.000
7 C.e 8.145 -0.793 0.566 C.3 1 FUZI_1    0.000
8 O 5.113 0.408 -0.934 O.2 1 FUZI_1    0.000
9 C_28904 3.903 -1.784 0.291 C.3 1 FUZI_1    0.000
10 C_28901 5.080 -0.711 2.078 C.3 1 FUZI_1    0.000
11 C.d 5.352 -1.373 0.705 C.3 1 FUZI_1    0.000
12 C_28918 4.751 -5.738 2.198 C.3 1 FUZI_1    0.000
13 C.c 3.707 -0.041 1.906 C.3 1 FUZI_1    0.000
14 O 1.110 -1.599 0.007 O.2 1 FUZI_1    0.000
15 O 3.587 0.509 4.213 O.2 1 FUZI_1    0.000
16 N 2.969 -0.887 0.986 N.am 1 FUZI_1    0.000
17 C_28912 -0.427 -1.036 2.280 C.3 1 FUZI_1    0.000
18 C_28909 0.174 1.051 1.218 C.3 1 FUZI_1    0.000
19 O 1.357 3.040 4.011 O.co2 1 FUZI_1    0.000
20 O -0.699 1.424 -1.475 O.2 1 FUZI_1    0.000
21 C_28900 7.712 -2.214 0.879 C.2 1 FUZI_1    0.000
22 C_28897 5.851 -0.263 -0.235 C.2 1 FUZI_1    0.000
23 N.d 6.372 -2.473 0.840 N.am 1 FUZI_1    0.000
24 C.d2 5.879 -3.875 0.916 C.3 1 FUZI_1    0.000
25 C_28917 6.365 -4.213 3.408 C.3 1 FUZI_1    0.000
26 C_28916 5.301 -4.300 2.291 C.3 1 FUZI_1    0.000
27 C_28908 1.625 -0.934 0.888 C.2 1 FUZI_1    0.000
28 C_28905 2.972 0.265 3.192 C.2 1 FUZI_1    0.000
29 N.b 1.609 0.252 3.148 N.am 1 FUZI_1    0.000
30 C.b2 0.819 0.763 4.301 C.3 1 FUZI_1    0.000
31 OH 1.475 2.260 5.992 O.co2 1 FUZI_1    0.000
32 C_28922 1.246 2.128 4.807 C.2 1 FUZI_1    0.000
33 C_28929 -2.866 1.911 5.326 C.2 1 FUZI_1    0.000
34 C.a2 -2.342 1.571 1.157 C.3 1 FUZI_1    0.000
35 C_28931 -3.208 0.763 3.346 C.2 1 FUZI_1    0.000
36 C_28927 -2.046 2.749 3.326 C.2 1 FUZI_1    0.000
37 C_28926 -2.530 1.692 2.664 C.2 1 FUZI_1    0.000
38 C_28935 -3.014 2.022 6.651 C.2 1 FUZI_1    0.000
39 C_28930 -3.370 0.866 4.665 C.2 1 FUZI_1    0.000
40 C_28928 -2.201 2.865 4.649 C.2 1 FUZI_1    0.000
41 C_28932 -1.697 3.915 5.307 C.2 1 FUZI_1    0.000
42 C_28933 -1.849 4.016 6.628 C.2 1 FUZI_1    0.000
43 C_28934 -2.506 3.071 7.299 C.2 1 FUZI_1    0.000
44 C.a -1.222 0.584 0.692 C.3 1 FUZI_1    0.000
45 N -1.427 -0.762 1.240 N.am 1 FUZI_1    0.000
46 O -2.410 -2.748 1.325 O.2 1 FUZI_1    0.000
47 C_28938 -2.717 -1.534 -0.742 C.3 1 FUZI_1    0.000
48 C_28936 -1.292 0.578 -0.830 C.2 1 FUZI_1    0.000
49 C_28939 -2.193 -1.730 0.692 C.2 1 FUZI_1    0.000
50 N.z -2.064 -0.369 -1.444 N.am 1 FUZI_1    0.000
51 C.z2 -2.318 -0.261 -2.909 C.3 1 FUZI_1    0.000
52 C_28975 -4.261 -1.322 -0.593 C.3 1 FUZI_1    0.000
53 C_28944 -2.414 -2.893 -1.476 C.3 1 FUZI_1    0.000
54 C_28945 -3.573 -3.907 -1.352 C.3 1 FUZI_1    0.000
55 NH -4.812 -3.370 -1.978 N.2 1 FUZI_1    0.000
56 C_28979 -4.415 2.770 -3.459 C.2 1 FUZI_1    0.000
57 C_28980 -3.983 1.585 -3.017 C.2 1 FUZI_1    0.000
58 C_28976 -2.075 1.788 -4.286 C.2 1 FUZI_1    0.000
59 C_28977 -2.493 2.971 -4.735 C.2 1 FUZI_1    0.000
60 C_28943 -2.811 1.084 -3.421 C.2 1 FUZI_1    0.000
61 C_28984 -5.587 3.268 -3.049 C.2 1 FUZI_1    0.000
62 C_28978 -3.663 3.471 -4.327 C.2 1 FUZI_1    0.000
63 C_28981 -4.093 4.658 -4.770 C.2 1 FUZI_1    0.000
64 C_28982 -5.263 5.146 -4.354 C.2 1 FUZI_1    0.000
65 C_28983 -6.009 4.451 -3.495 C.2 1 FUZI_1    0.000
66 C_28974 -5.109 -1.928 -1.737 C.3 1 FUZI_1    0.000
67 H_289741 -6.165 -1.838 -1.470 H 1 FUZI_1    0.000
68 H_289742 -4.959 -1.373 -2.663 H 1 FUZI_1    0.000
69 H_28983 -6.962 4.851 -3.157 H 1 FUZI_1    0.000
70 H_28982 -5.609 6.111 -4.717 H 1 FUZI_1    0.000
71 H_28981 -3.495 5.235 -5.471 H 1 FUZI_1    0.000
72 H_28984 -6.206 2.712 -2.347 H 1 FUZI_1    0.000
73 H_28977 -1.872 3.524 -5.437 H 1 FUZI_1    0.000
74 H_28976 -1.118 1.400 -4.629 H 1 FUZI_1    0.000
75 H_28980 -4.594 1.021 -2.319 H 1 FUZI_1    0.000
76 H_289451 -3.296 -4.832 -1.864 H 1 FUZI_1    0.000
77 H_289452 -3.772 -4.141 -0.304 H 1 FUZI_1    0.000
78 H_289441 -1.498 -3.339 -1.080 H 1 FUZI_1    0.000
79 H_289442 -2.216 -2.767 -2.540 H 1 FUZI_1    0.000
80 H_289751 -4.491 -0.261 -0.489 H 1 FUZI_1    0.000
81 H_289752 -4.615 -1.786 0.331 H 1 FUZI_1    0.000
82 H.z21 -3.047 -1.001 -3.229 H 1 FUZI_1    0.000
83 H.z22 -1.381 -0.514 -3.413 H 1 FUZI_1    0.000
84 H_28934 -2.629 3.155 8.376 H 1 FUZI_1    0.000
85 H_28933 -1.435 4.870 7.158 H 1 FUZI_1    0.000
86 H_28932 -1.156 4.693 4.773 H 1 FUZI_1    0.000
87 H_28930 -3.917 0.089 5.195 H 1 FUZI_1    0.000
88 H_28935 -3.550 1.258 7.211 H 1 FUZI_1    0.000
89 H_28927 -1.505 3.520 2.780 H 1 FUZI_1    0.000
90 H_28931 -3.629 -0.095 2.827 H 1 FUZI_1    0.000
91 H.a21 -3.294 1.264 0.721 H 1 FUZI_1    0.000
92 H.a22 -2.136 2.559 0.737 H 1 FUZI_1    0.000
93 H.b21 0.902 0.053 5.129 H 1 FUZI_1    0.000
94 H.b22 -0.231 0.880 4.045 H 1 FUZI_1    0.000
95 H_28916 4.468 -3.647 2.555 H 1 FUZI_1    0.000
96 H_289171 5.944 -4.536 4.363 H 1 FUZI_1    0.000
97 H_289172 6.720 -3.188 3.532 H 1 FUZI_1    0.000
98 H_289173 7.223 -4.849 3.178 H 1 FUZI_1    0.000
99 H.d21 6.701 -4.555 0.677 H 1 FUZI_1    0.000
100 H.d22 5.140 -4.043 0.131 H 1 FUZI_1    0.000
101 H_289091 0.838 1.408 0.427 H 1 FUZI_1    0.000
102 H_289092 0.066 1.888 1.905 H 1 FUZI_1    0.000
103 H_289121 -0.147 -2.093 2.285 H 1 FUZI_1    0.000
104 H_289122 -0.879 -0.807 3.244 H 1 FUZI_1    0.000
105 H.c 3.843 0.924 1.410 H 1 FUZI_1    0.000
106 H_289181 5.544 -6.444 1.942 H 1 FUZI_1    0.000
107 H_289182 3.973 -5.801 1.433 H 1 FUZI_1    0.000
108 H_289183 4.312 -6.044 3.151 H 1 FUZI_1    0.000
109 H_289011 5.849 0.012 2.359 H 1 FUZI_1    0.000
110 H_289012 5.020 -1.466 2.864 H 1 FUZI_1    0.000
111 H_289041 3.763 -1.727 -0.792 H 1 FUZI_1    0.000
112 H_289042 3.640 -2.787 0.623 H 1 FUZI_1    0.000
113 H.e 8.200 -0.266 1.523 H 1 FUZI_1    0.000
114 H_288921 9.602 -1.470 -0.899 H 1 FUZI_1    0.000
115 H_288922 10.343 -0.726 0.540 H 1 FUZI_1    0.000
116 H_288941 7.573 1.847 -1.075 H 1 FUZI_1    0.000
117 H_288942 7.725 0.479 -2.219 H 1 FUZI_1    0.000
118 H_288931 9.695 1.476 -0.168 H 1 FUZI_1    0.000
119 H_288932 10.033 0.732 -1.748 H 1 FUZI_1    0.000
@<TRIPOS>BOND
1 1 29 1 
2 2 4 1 
3 2 118 1 
4 2 119 1 
5 3 2 1 
6 3 116 1 
7 3 117 1 
8 4 114 1 
9 4 115 1 
10 5 3 1 
11 7 5 1 
12 7 4 1 
13 7 113 1 
14 9 16 1 
15 9 111 1 
16 9 112 1 
17 10 11 1 
18 10 13 1 
19 10 109 1 
20 10 110 1 
21 11 22 1 
22 11 9 1 
23 12 26 1 
24 12 106 1 
25 12 107 1 
26 12 108 1 
27 13 105 1 
28 16 13 1 
29 17 45 1 
30 17 1 1 
31 17 103 1 
32 17 104 1 
33 18 1 1 
34 18 101 1 
35 18 102 1 
36 19 32 2 
37 21 23 1 
38 21 7 1 
39 21 6 2 
40 22 5 1 
41 22 8 2 
42 23 11 1 
43 23 24 1 
44 24 99 1 
45 24 100 1 
46 25 26 1 
47 25 96 1 
48 25 97 1 
49 25 98 1 
50 26 24 1 
51 26 95 1 
52 27 1 1 
53 27 16 1 
54 27 14 2 
55 28 13 1 
56 28 15 2 
57 29 28 1 
58 29 30 1 
59 30 93 1 
60 30 94 1 
61 31 32 1 
62 32 30 1 
63 33 40 2 
64 34 37 1 
65 34 91 1 
66 34 92 1 
67 35 39 2 
68 35 37 1 
69 35 90 1 
70 36 37 2 
71 36 89 1 
72 38 43 2 
73 38 33 1 
74 38 88 1 
75 39 33 1 
76 39 87 1 
77 40 36 1 
78 41 40 1 
79 41 86 1 
80 42 41 2 
81 42 85 1 
82 43 42 1 
83 43 84 1 
84 44 18 1 
85 44 34 1 
86 44 48 1 
87 45 44 1 
88 45 49 1 
89 46 49 2 
90 48 20 2 
91 49 47 1 
92 50 48 1 
93 50 47 1 
94 50 51 1 
95 51 82 1 
96 51 83 1 
97 52 66 1 
98 52 47 1 
99 52 80 1 
100 52 81 1 
101 53 47 1 
102 53 78 1 
103 53 79 1 
104 54 53 1 
105 54 76 1 
106 54 77 1 
107 55 54 1 
108 56 62 1 
109 57 56 2 
110 57 75 1 
111 58 60 2 
112 58 59 1 
113 58 74 1 
114 59 73 1 
115 60 51 1 
116 60 57 1 
117 61 65 2 
118 61 56 1 
119 61 72 1 
120 62 59 2 
121 63 62 1 
122 63 71 1 
123 64 63 2 
124 65 64 1 
125 66 55 1 
126 66 67 1 
127 66 68 1 
128 69 65 1 
129 70 64 1 
@<TRIPOS>SUBSTRUCTURE
1 CKW::FUZI_1 1 RESIDUE 1 CKW::A CKW::FUZI 1
