@<TRIPOS>MOLECULE
BCJ
   89    93     1     0     0
SMALL
bcc


@<TRIPOS>ATOM
      1 N1         -37.6810    19.0980    37.6980 nc       901 BCJ      -0.527800
      2 C1         -38.8600    19.1770    37.0830 cd       901 BCJ       0.380800
      3 C2         -39.8150    19.8690    37.8890 cd       901 BCJ      -0.248600
      4 C3         -39.1510    20.1900    39.0210 cc       901 BCJ      -0.082600
      5 N2         -37.8850    19.7250    38.8940 na       901 BCJ       0.070400
      6 C4         -39.7430    20.9260    40.1810 c3       901 BCJ      -0.054100
      7 C6         -41.2370    21.2710    39.9200 c3       901 BCJ       0.080000
      8 C7         -41.2440    20.2570    37.6730 c3       901 BCJ       0.154300
      9 C8         -39.0340    18.6250    35.7250 ca       901 BCJ      -0.068500
     10 C9         -36.8080    19.8550    39.8610 c3       901 BCJ       0.022300
     11 C10        -36.6810    18.6360    40.7740 c3       901 BCJ       0.108100
     12 C11        -36.2400    17.4180    39.9550 c3       901 BCJ       0.072800
     13 C12        -38.0050    18.7180    34.8090 ca       901 BCJ      -0.092000
     14 C13        -38.1990    18.2040    33.5130 ca       901 BCJ      -0.079000
     15 C14        -39.4030    17.6190    33.1320 ca       901 BCJ      -0.146300
     16 C15        -40.4400    17.5430    34.0700 ca       901 BCJ       0.017900
     17 C16        -40.2730    18.0380    35.3430 ca       901 BCJ      -0.096000
     18 C17        -35.2260    16.3710    41.9470 c3       901 BCJ       0.114300
     19 C18        -35.0560    15.0900    42.7410 c3       901 BCJ      -0.106400
     20 C19        -34.5140    13.9230    41.9090 c3       901 BCJ      -0.098400
     21 C20        -35.4220    13.7690    40.6650 c3       901 BCJ      -0.106400
     22 C21        -35.5880    15.1020    39.9030 c3       901 BCJ       0.114300
     23 C22        -39.5970    17.0840    31.7460 c3       901 BCJ       0.689200
     24 C23        -42.5240    15.9480    35.1470 c3       901 BCJ      -0.102300
     25 C24        -41.6620    14.7230    35.3890 c3       901 BCJ       0.112800
     26 C25        -43.3130    12.9390    35.4990 c3       901 BCJ       0.117300
     27 C26        -44.0880    12.0030    36.4380 c3       901 BCJ      -0.148400
     28 C27        -43.1600    11.2690    37.4170 c3       901 BCJ       0.179600
     29 C28        -41.7240    11.3150    36.8930 c3       901 BCJ      -0.148400
     30 C29        -41.2300    12.7630    36.7340 c3       901 BCJ       0.117300
     31 F1         -39.5640    15.7580    31.6840 f        901 BCJ      -0.244967
     32 F2         -40.7800    17.4210    31.2490 f        901 BCJ      -0.244967
     33 F3         -38.7030    17.5520    30.8790 f        901 BCJ      -0.244967
     34 N3         -41.5580    21.4530    38.4800 n        901 BCJ      -0.452800
     35 N4         -36.0920    16.1890    40.7630 nx       901 BCJ      -0.684400
     36 N5         -42.2760    13.6880    36.2350 nx       901 BCJ      -0.691400
     37 S1         -41.9950    16.8240    33.6480 ss       901 BCJ      -0.125000
     38 O180       -37.8960    18.3200    41.4340 oh       901 BCJ      -0.597800
     39 F180       -43.5560    10.0080    37.5490 f        901 BCJ      -0.197300
     40 C260       -42.1360    22.5900    38.0100 c        901 BCJ       0.618100
     41 O260       -42.5090    23.4800    38.7750 o        901 BCJ      -0.572100
     42 C350       -42.3270    22.8470    36.4940 c3       901 BCJ       0.084100
     43 O351       -41.1380    22.6330    35.7480 oh       901 BCJ      -0.603800
     44 C352       -43.5130    22.0770    35.8870 c3       901 BCJ      -0.096100
     45 H1         -39.1830    21.8470    40.3510 hc       901 BCJ       0.076200
     46 H2         -39.6740    20.3050    41.0770 hc       901 BCJ       0.076200
     47 H6         -41.5420    22.1060    40.5520 h1       901 BCJ       0.081700
     48 H7         -41.8400    20.4330    40.2520 h1       901 BCJ       0.081700
     49 H8         -41.9000    19.4640    38.0350 h1       901 BCJ       0.079700
     50 H9         -41.4460    20.3580    36.6130 h1       901 BCJ       0.079700
     51 H10        -36.9800    20.7530    40.4560 h1       901 BCJ       0.102700
     52 H11        -35.8560    20.0050    39.3530 h1       901 BCJ       0.102700
     53 H13        -35.3000    17.6470    39.4410 hx       901 BCJ       0.113200
     54 H14        -36.9700    17.1940    39.1780 hx       901 BCJ       0.113200
     55 H15        -34.2680    16.7360    41.6130 hx       901 BCJ       0.098200
     56 H16        -35.6370    17.1070    42.6370 hx       901 BCJ       0.098200
     57 H17        -36.0300    14.8310    43.1570 hc       901 BCJ       0.089200
     58 H20        -36.3960    13.3870    40.9730 hc       901 BCJ       0.089200
     59 H21        -35.0100    13.0270    39.9810 hc       901 BCJ       0.089200
     60 H22        -36.2660    14.9820    39.0610 hx       901 BCJ       0.098200
     61 H23        -34.6340    15.4490    39.4960 hx       901 BCJ       0.098200
     62 H24        -42.4520    16.6180    36.0040 h1       901 BCJ       0.110700
     63 H25        -43.5650    15.6440    35.0410 h1       901 BCJ       0.110700
     64 H26        -40.7130    15.0310    35.8280 hx       901 BCJ       0.116700
     65 H27        -41.3800    14.2850    34.4310 hx       901 BCJ       0.116700
     66 H28        -43.9910    13.6350    35.0280 hx       901 BCJ       0.104950
     67 H29        -42.8260    12.3530    34.7130 hx       901 BCJ       0.104950
     68 H30        -44.6270    11.2730    35.8330 hc       901 BCJ       0.103450
     69 H31        -44.8280    12.5760    36.9910 hc       901 BCJ       0.103450
     70 H32        -43.2170    11.7130    38.4140 h1       901 BCJ       0.066700
     71 H33        -41.6860    10.8220    35.9190 hc       901 BCJ       0.103450
     72 H34        -41.0660    10.7750    37.5590 hc       901 BCJ       0.103450
     73 H35        -40.3890    12.7860    36.0390 hx       901 BCJ       0.104950
     74 H36        -40.8630    13.1260    37.6840 hx       901 BCJ       0.104950
     75 H44        -41.0570    18.0060    36.0820 ha       901 BCJ       0.168000
     76 H45        -37.3860    18.2740    32.8050 ha       901 BCJ       0.170000
     77 H46        -36.9900    19.1970    35.0520 ha       901 BCJ       0.167000
     78 H47        -37.0210    15.9340    41.0660 hn       901 BCJ       0.462800
     79 H48        -42.7110    14.1360    37.0290 hn       901 BCJ       0.454800
     80 H19        -33.5120    14.1970    41.5670 hc       901 BCJ       0.082200
     81 H18        -34.3750    15.3030    43.5660 hc       901 BCJ       0.089200
     82 H221       -34.4900    13.0030    42.4930 hc       901 BCJ       0.082200
     83 H12        -35.9280    18.9080    41.5150 h1       901 BCJ       0.101700
     84 H186       -38.1780    19.0600    41.9580 ho       901 BCJ       0.434000
     85 H350       -42.5540    23.9090    36.3960 h1       901 BCJ       0.087700
     86 H354       -43.6910    22.3770    34.8550 hc       901 BCJ       0.055700
     87 H353       -43.3650    20.9980    35.8830 hc       901 BCJ       0.055700
     88 H352       -44.4310    22.2680    36.4430 hc       901 BCJ       0.055700
     89 H351       -41.2660    22.9640    34.8740 ho       901 BCJ       0.420000
@<TRIPOS>BOND
     1     1     2 2   
     2     1     5 1   
     3     2     3 1   
     4     2     9 1   
     5     3     4 2   
     6     3     8 1   
     7     4     5 1   
     8     4     6 1   
     9     5    10 1   
    10     6     7 1   
    11     6    45 1   
    12     6    46 1   
    13     7    34 1   
    14     7    47 1   
    15     7    48 1   
    16     8    34 1   
    17     8    49 1   
    18     8    50 1   
    19     9    13 ar  
    20     9    17 ar  
    21    10    11 1   
    22    10    51 1   
    23    10    52 1   
    24    11    12 1   
    25    11    38 1   
    26    11    83 1   
    27    12    35 1   
    28    12    53 1   
    29    12    54 1   
    30    13    14 ar  
    31    13    77 1   
    32    14    15 ar  
    33    14    76 1   
    34    15    16 ar  
    35    15    23 1   
    36    16    17 ar  
    37    16    37 1   
    38    17    75 1   
    39    18    19 1   
    40    18    35 1   
    41    18    55 1   
    42    18    56 1   
    43    19    20 1   
    44    19    57 1   
    45    19    81 1   
    46    20    21 1   
    47    20    80 1   
    48    20    82 1   
    49    21    22 1   
    50    21    58 1   
    51    21    59 1   
    52    22    35 1   
    53    22    60 1   
    54    22    61 1   
    55    23    31 1   
    56    23    32 1   
    57    23    33 1   
    58    24    25 1   
    59    24    37 1   
    60    24    62 1   
    61    24    63 1   
    62    25    36 1   
    63    25    64 1   
    64    25    65 1   
    65    26    27 1   
    66    26    36 1   
    67    26    66 1   
    68    26    67 1   
    69    27    28 1   
    70    27    68 1   
    71    27    69 1   
    72    28    29 1   
    73    28    39 1   
    74    28    70 1   
    75    29    30 1   
    76    29    71 1   
    77    29    72 1   
    78    30    36 1   
    79    30    73 1   
    80    30    74 1   
    81    34    40 1   
    82    35    78 1   
    83    36    79 1   
    84    38    84 1   
    85    40    41 2   
    86    40    42 1   
    87    42    43 1   
    88    42    44 1   
    89    42    85 1   
    90    43    89 1   
    91    44    86 1   
    92    44    87 1   
    93    44    88 1   
@<TRIPOS>SUBSTRUCTURE
     1 BCJ         1 TEMP              0 ****  ****    0 ROOT
